ejm_31 - preprocessed
                    3D
 Schrodinger Suite 2021-3.
 38 39  0  0  1  0            999 V2000
    3.9900   -1.7060   -0.0750 C   0  0  0  0  0  0
    4.6570   -0.8440   -0.9410 C   0  0  0  0  0  0
    3.9960   -0.3040   -2.0390 C   0  0  0  0  0  0
    2.6510   -0.6340   -2.2880 C   0  0  0  0  0  0
    1.9820   -1.4970   -1.3980 C   0  0  0  0  0  0
    2.6590   -2.0270   -0.3070 C   0  0  0  0  0  0
    0.3110   -1.9030   -1.6640 C   0  0  0  0  0  0
    1.9110   -0.1040   -3.4560 C   0  0  0  0  0  0
    1.7250   -0.8360   -4.4140 O   0  0  0  0  0  0
    1.4380    1.1560   -3.3930 N   0  0  0  0  0  0
    0.6640    1.8550   -4.3250 C   0  0  0  0  0  0
   -0.0110    1.2920   -5.4260 C   0  0  0  0  0  0
   -0.8300    2.1050   -6.2040 C   0  0  0  0  0  0
   -0.9720    3.3980   -5.9280 N   0  0  0  0  0  0
   -0.3470    3.9760   -4.9030 C   0  0  0  0  0  0
    0.4440    3.2010   -4.0520 C   0  0  0  0  0  0
   -0.5880    5.3270   -4.6290 N   0  0  0  0  0  0
    0.2380    6.1890   -3.9780 C   0  0  0  0  0  0
    1.3350    5.8660   -3.5550 O   0  0  0  0  0  0
   -0.2810    7.5910   -3.7760 C   0  0  0  0  0  0
    4.8390    0.7950   -3.0770 C   0  0  0  0  0  0
    4.5077   -2.1240    0.7757 H   0  0  0  0  0  0
    5.6918   -0.5922   -0.7614 H   0  0  0  0  0  0
    2.1397   -2.6950    0.3642 H   0  0  0  0  0  0
   -0.0294   -2.5766   -0.8776 H   0  0  0  0  0  0
   -0.2910   -0.9944   -1.6492 H   0  0  0  0  0  0
    0.2052   -2.3926   -2.6321 H   0  0  0  0  0  0
    1.6349    1.7295   -2.5853 H   0  0  0  0  0  0
    0.1110    0.2438   -5.6558 H   0  0  0  0  0  0
   -1.3618    1.6877   -7.0463 H   0  0  0  0  0  0
    0.8861    3.6538   -3.1768 H   0  0  0  0  0  0
   -1.4531    5.7559   -4.9253 H   0  0  0  0  0  0
    0.4658    8.1826   -3.2465 H   0  0  0  0  0  0
   -0.4845    8.0468   -4.7450 H   0  0  0  0  0  0
   -1.1997    7.5580   -3.1904 H   0  0  0  0  0  0
    4.1763    1.1180   -3.8799 H   0  0  0  0  0  0
    5.1624    1.6629   -2.5022 H   0  0  0  0  0  0
    5.7099    0.2972   -3.5035 H   0  0  0  0  0  0
  1  2  1  0  0  0
  1  6  2  0  0  0
  1 22  1  0  0  0
  2  3  2  0  0  0
  2 23  1  0  0  0
  3  4  1  0  0  0
  3 21  1  0  0  0
  4  5  2  0  0  0
  4  8  1  0  0  0
  5  6  1  0  0  0
  5  7  1  0  0  0
  6 24  1  0  0  0
  7 25  1  0  0  0
  7 26  1  0  0  0
  7 27  1  0  0  0
  8  9  2  0  0  0
  8 10  1  0  0  0
 10 11  1  0  0  0
 10 28  1  0  0  0
 11 12  1  0  0  0
 11 16  2  0  0  0
 12 13  2  0  0  0
 12 29  1  0  0  0
 13 14  1  0  0  0
 13 30  1  0  0  0
 14 15  2  0  0  0
 15 16  1  0  0  0
 15 17  1  0  0  0
 16 31  1  0  0  0
 17 18  1  0  0  0
 17 32  1  0  0  0
 18 19  2  0  0  0
 18 20  1  0  0  0
 20 33  1  0  0  0
 20 34  1  0  0  0
 20 35  1  0  0  0
 21 36  1  0  0  0
 21 37  1  0  0  0
 21 38  1  0  0  0
M  END
> <i_m_stars>
0

> <s_m_entry_id>
25

> <s_m_entry_name>
Structure24

> <r_pdb_PDB_CRYST1_a>
81.695

> <r_pdb_PDB_CRYST1_b>
88.616

> <r_pdb_PDB_CRYST1_c>
87.672

> <r_pdb_PDB_CRYST1_alpha>
90

> <r_pdb_PDB_CRYST1_beta>
90

> <r_pdb_PDB_CRYST1_gamma>
90

> <s_pdb_PDB_CRYST1_Space_Group>
P 1

> <i_pdb_PDB_CRYST1_z>
1

> <s_pdb_PDB_format_version>
3.0

> <s_m_Source_Path>
C:\Users\simm\Desktop\TYK2\complexes\Tyk2_new_2-ejm_31-ejm_43

> <s_m_Source_File>
Tyk2_new_2-ejm_31-ejm_43.pdb

> <i_m_Source_File_Index>
1

> <s_ppw_entry_id_backup>
24

> <b_ppw_prepared>
1

> <s_ppw_prepared_with_version>
2021-3

> <b_ppw_assigned_bond_orders>
1

> <b_ppw_added_hydrogens>
1

> <b_ppw_treated_metals>
1

> <b_ppw_created_disulfur>
1

> <s_ppw_het_states>
eJxNkb0OglAMRl+luTPq7QXkx83J1TgSBqJOIjjgYIzvblv7JTLwnZbm3ALvwKGlTi7OKPYZdckz9yw8S8+tZ+VZezaeHAEwMpQMJ0PKsDK0DC9DzDAnmJOZlXRrsbPNZSSS5O+QO0oWPqAtdpZe6ROCtXdLUwArR3na+KwORpynAJ9B+i+wi3WxjQJjHwNsocA43Aocb4ANDbCNFsnWkWoV14LvwIX8UC0+8pG0FU7LsFzpcZ2GcXn9nkW6nYdxc5/HHR1W+3m60Hl+TktLcUdHuYe+/3wBU8R1Fw==

$$$$
