Structure2069
                    3D
 Schrodinger Suite 2021-3.
 42 41  0  0  1  0            999 V2000
   -1.8109   -1.9229    2.5878 C   0  0  0  0  0  0
   -1.7053   -0.7839    1.5839 C   0  0  0  0  0  0
   -2.5834    0.0749    1.5417 O   0  0  0  0  0  0
   -0.6312   -0.7966    0.7925 N   0  0  0  0  0  0
   -0.3824    0.2205   -0.2194 C   0  0  2  0  0  0
    0.9332   -0.0865   -0.9524 C   0  0  0  0  0  0
    1.6122   -1.0714   -0.6595 O   0  0  0  0  0  0
   -0.3828    1.5944    0.4551 C   0  0  0  0  0  0
   -0.9499   -2.5828    2.4813 H   0  0  0  0  0  0
   -1.8331   -1.5160    3.5988 H   0  0  0  0  0  0
   -2.7253   -2.4869    2.4035 H   0  0  0  0  0  0
    0.0528   -1.5344    0.8813 H   0  0  0  0  0  0
   -1.2345    0.2758   -0.8968 H   0  0  0  0  0  0
   -0.1974    2.3664   -0.2917 H   0  0  0  0  0  0
   -1.3508    1.7689    0.9248 H   0  0  0  0  0  0
    0.3996    1.6277    1.2133 H   0  0  0  0  0  0
    1.2829    0.8100   -1.9416 N   0  0  0  0  0  0
    2.4946    0.6762   -2.7377 C   0  0  2  0  0  0
    2.5850    1.8335   -3.7452 C   0  0  0  0  0  0
    1.7134    2.7018   -3.7995 O   0  0  0  0  0  0
    2.4919   -0.6996   -3.4084 C   0  0  0  0  0  0
    0.6872    1.6012   -2.1395 H   0  0  0  0  0  0
    3.3605    0.6291   -2.0774 H   0  0  0  0  0  0
    3.3947   -0.8136   -4.0086 H   0  0  0  0  0  0
    2.4635   -1.4767   -2.6446 H   0  0  0  0  0  0
    1.6157   -0.7897   -4.0504 H   0  0  0  0  0  0
    3.6958    1.8204   -4.5640 N   0  0  0  0  0  0
    3.9444    2.8376   -5.5758 C   0  0  2  0  0  0
    5.2600    2.5308   -6.3089 C   0  0  0  0  0  0
    5.9390    1.5459   -6.0163 O   0  0  0  0  0  0
    3.9439    4.2114   -4.9011 C   0  0  0  0  0  0
    5.5992    3.4012   -7.2689 N   0  0  0  0  0  0
    6.8098    3.2707   -8.0668 C   0  0  0  0  0  0
    4.3798    1.0826   -4.4754 H   0  0  0  0  0  0
    3.0922    2.8929   -6.2531 H   0  0  0  0  0  0
    4.1291    4.9836   -5.6479 H   0  0  0  0  0  0
    2.9759    4.3858   -4.4314 H   0  0  0  0  0  0
    4.7263    4.2448   -4.1430 H   0  0  0  0  0  0
    5.0035    4.1925   -7.4666 H   0  0  0  0  0  0
    6.8672    4.0944   -8.7784 H   0  0  0  0  0  0
    7.6812    3.2951   -7.4125 H   0  0  0  0  0  0
    6.7888    2.3246   -8.6078 H   0  0  0  0  0  0
  1  2  1  0  0  0
  1  9  1  0  0  0
  1 10  1  0  0  0
  1 11  1  0  0  0
  2  3  2  0  0  0
  2  4  1  0  0  0
  4  5  1  0  0  0
  4 12  1  0  0  0
  5  6  1  0  0  0
  5  8  1  0  0  0
  5 13  1  0  0  0
  6  7  2  0  0  0
  6 17  1  0  0  0
  8 14  1  0  0  0
  8 15  1  0  0  0
  8 16  1  0  0  0
 17 18  1  0  0  0
 17 22  1  0  0  0
 18 19  1  0  0  0
 18 21  1  0  0  0
 18 23  1  0  0  0
 19 20  2  0  0  0
 19 27  1  0  0  0
 21 24  1  0  0  0
 21 25  1  0  0  0
 21 26  1  0  0  0
 27 28  1  0  0  0
 27 34  1  0  0  0
 28 29  1  0  0  0
 28 31  1  0  0  0
 28 35  1  0  0  0
 29 30  2  0  0  0
 29 32  1  0  0  0
 31 36  1  0  0  0
 31 37  1  0  0  0
 31 38  1  0  0  0
 32 33  1  0  0  0
 32 39  1  0  0  0
 33 40  1  0  0  0
 33 41  1  0  0  0
 33 42  1  0  0  0
M  END
> <s_m_entry_id>
2069

> <s_m_entry_name>
Structure2069

$$$$
