/home/S66X8/2922_28BenzeneUracilpipi200.xyz
 OpenBabel06262409173D

 24 24  0  0  0  0  0  0  0  0999 V2000
    0.8258    1.2365   -0.0403 C   0  0  0  0  0  0  0  0  0  0  0  0
    1.5210    2.0631   -0.0825 H   0  0  0  0  0  0  0  0  0  0  0  0
    1.3002   -0.0629    0.1273 C   0  0  0  0  0  0  0  0  0  0  0  0
    2.3637   -0.2423    0.2077 H   0  0  0  0  0  0  0  0  0  0  0  0
    0.4035   -1.1286    0.1982 C   0  0  0  0  0  0  0  0  0  0  0  0
    0.7738   -2.1374    0.3241 H   0  0  0  0  0  0  0  0  0  0  0  0
   -0.9678   -0.8952    0.1031 C   0  0  0  0  0  0  0  0  0  0  0  0
   -1.6652   -1.7200    0.1604 H   0  0  0  0  0  0  0  0  0  0  0  0
   -1.4435    0.4045   -0.0624 C   0  0  0  0  0  0  0  0  0  0  0  0
   -2.5075    0.5855   -0.1242 H   0  0  0  0  0  0  0  0  0  0  0  0
   -0.5458    1.4688   -0.1362 C   0  0  0  0  0  0  0  0  0  0  0  0
   -0.9142    2.4774   -0.2679 H   0  0  0  0  0  0  0  0  0  0  0  0
   -0.1595    0.3472    6.2653 N   0  0  0  0  0  0  0  0  0  0  0  0
   -0.5328    1.2490    6.0024 H   0  0  0  0  0  0  0  0  0  0  0  0
    1.2327    0.2742    6.3973 C   0  0  0  0  0  0  0  0  0  0  0  0
    1.9236    1.2686    6.2524 O   0  0  0  0  0  0  0  0  0  0  0  0
    1.7116   -1.0599    6.7154 C   0  0  0  0  0  0  0  0  0  0  0  0
    2.7686   -1.2121    6.8495 H   0  0  0  0  0  0  0  0  0  0  0  0
    0.8319   -2.0742    6.8416 C   0  0  0  0  0  0  0  0  0  0  0  0
    1.1378   -3.0827    7.0781 H   0  0  0  0  0  0  0  0  0  0  0  0
   -0.5134   -1.8892    6.6715 N   0  0  0  0  0  0  0  0  0  0  0  0
   -1.1621   -2.6518    6.7704 H   0  0  0  0  0  0  0  0  0  0  0  0
   -1.0878   -0.6644    6.3721 C   0  0  0  0  0  0  0  0  0  0  0  0
   -2.2856   -0.5136    6.2300 O   0  0  0  0  0  0  0  0  0  0  0  0
  1  3  1  0  0  0  0
  2  1  1  0  0  0  0
  3  5  2  0  0  0  0
  3  4  1  0  0  0  0
  5  6  1  0  0  0  0
  7  8  1  0  0  0  0
  7  5  1  0  0  0  0
  9  7  2  0  0  0  0
 10  9  1  0  0  0  0
 11  9  1  0  0  0  0
 11  1  2  0  0  0  0
 12 11  1  0  0  0  0
 13 23  1  0  0  0  0
 13 15  1  0  0  0  0
 14 13  1  0  0  0  0
 15 17  1  0  0  0  0
 16 15  2  0  0  0  0
 17 19  2  0  0  0  0
 17 18  1  0  0  0  0
 19 20  1  0  0  0  0
 21 22  1  0  0  0  0
 21 19  1  0  0  0  0
 23 21  1  0  0  0  0
 24 23  2  0  0  0  0
M  END
>  <SMILES>
c1ccccc1.[nH]1c(=O)cc[nH]c1=O

>  <MoleculeName>
BenzeneUracilpipi200

>  <Distance Scale>
2.0

>  <Energy Value>
-0.25

$$$$
/home/S66X8/3131_55BenzeneMeOHOHpi090.xyz
 OpenBabel06262409173D

 18 17  0  0  0  0  0  0  0  0999 V2000
    0.7597    1.0313    0.3738 C   0  0  0  0  0  0  0  0  0  0  0  0
    1.4350    1.8757    0.3747 H   0  0  0  0  0  0  0  0  0  0  0  0
    1.2666   -0.2674    0.4213 C   0  0  0  0  0  0  0  0  0  0  0  0
    2.3349   -0.4292    0.4594 H   0  0  0  0  0  0  0  0  0  0  0  0
    0.3953   -1.3560    0.4249 C   0  0  0  0  0  0  0  0  0  0  0  0
    0.7887   -2.3625    0.4630 H   0  0  0  0  0  0  0  0  0  0  0  0
   -0.9822   -1.1467    0.3813 C   0  0  0  0  0  0  0  0  0  0  0  0
   -1.6577   -1.9911    0.3851 H   0  0  0  0  0  0  0  0  0  0  0  0
   -1.4893    0.1511    0.3376 C   0  0  0  0  0  0  0  0  0  0  0  0
   -2.5579    0.3138    0.3077 H   0  0  0  0  0  0  0  0  0  0  0  0
   -0.6188    1.2403    0.3339 C   0  0  0  0  0  0  0  0  0  0  0  0
   -1.0118    2.2471    0.3044 H   0  0  0  0  0  0  0  0  0  0  0  0
    0.0681    0.3179    3.4295 O   0  0  0  0  0  0  0  0  0  0  0  0
    0.1542    0.3678    2.4723 H   0  0  0  0  0  0  0  0  0  0  0  0
   -0.8280   -0.7397    3.7126 C   0  0  0  0  0  0  0  0  0  0  0  0
   -0.9238   -0.7964    4.7935 H   0  0  0  0  0  0  0  0  0  0  0  0
   -1.8202   -0.5680    3.2888 H   0  0  0  0  0  0  0  0  0  0  0  0
   -0.4616   -1.7027    3.3497 H   0  0  0  0  0  0  0  0  0  0  0  0
  1  2  1  0  0  0  0
  1  3  1  0  0  0  0
  3  5  2  0  0  0  0
  3  4  1  0  0  0  0
  5  6  1  0  0  0  0
  7  8  1  0  0  0  0
  7  5  1  0  0  0  0
  9  7  2  0  0  0  0
 10  9  1  0  0  0  0
 11  9  1  0  0  0  0
 11  1  2  0  0  0  0
 12 11  1  0  0  0  0
 13 15  1  0  0  0  0
 14 13  1  0  0  0  0
 15 16  1  0  0  0  0
 17 15  1  0  0  0  0
 18 15  1  0  0  0  0
M  END
>  <SMILES>
c1ccccc1.OC

>  <MoleculeName>
BenzeneMeOHOHpi090

>  <Distance Scale>
0.9

>  <Energy Value>
-3.45

$$$$
/home/S66X8/3096_50BenzeneEthyneCHpi125.xyz
 OpenBabel06262409173D

 16 15  0  0  0  0  0  0  0  0999 V2000
    0.8366    1.1149    0.2310 C   0  0  0  0  0  0  0  0  0  0  0  0
    1.4855    1.9797    0.2147 H   0  0  0  0  0  0  0  0  0  0  0  0
    1.3842   -0.1670    0.2601 C   0  0  0  0  0  0  0  0  0  0  0  0
    2.4577   -0.2963    0.2661 H   0  0  0  0  0  0  0  0  0  0  0  0
    0.5475   -1.2818    0.2869 C   0  0  0  0  0  0  0  0  0  0  0  0
    0.9719   -2.2760    0.3139 H   0  0  0  0  0  0  0  0  0  0  0  0
   -0.8367   -1.1150    0.2846 C   0  0  0  0  0  0  0  0  0  0  0  0
   -1.4856   -1.9796    0.3097 H   0  0  0  0  0  0  0  0  0  0  0  0
   -1.3842    0.1669    0.2556 C   0  0  0  0  0  0  0  0  0  0  0  0
   -2.4576    0.2965    0.2585 H   0  0  0  0  0  0  0  0  0  0  0  0
   -0.5475    1.2817    0.2290 C   0  0  0  0  0  0  0  0  0  0  0  0
   -0.9721    2.2760    0.2112 H   0  0  0  0  0  0  0  0  0  0  0  0
    0.0067    0.0930    4.5399 C   0  0  0  0  0  0  0  0  0  0  0  0
    0.0037    0.0754    3.4759 H   0  0  0  0  0  0  0  0  0  0  0  0
    0.0104    0.1126    5.7523 C   0  0  0  0  0  0  0  0  0  0  0  0
    0.0135    0.1297    6.8135 H   0  0  0  0  0  0  0  0  0  0  0  0
  1  3  1  0  0  0  0
  2  1  1  0  0  0  0
  3  4  1  0  0  0  0
  3  5  2  0  0  0  0
  5  6  1  0  0  0  0
  7  5  1  0  0  0  0
  7  8  1  0  0  0  0
  9 10  1  0  0  0  0
  9  7  2  0  0  0  0
 11  1  2  0  0  0  0
 11  9  1  0  0  0  0
 12 11  1  0  0  0  0
 13 15  3  0  0  0  0
 14 13  1  0  0  0  0
 15 16  1  0  0  0  0
M  END
>  <SMILES>
c1ccccc1.C#C

>  <MoleculeName>
BenzeneEthyneCHpi125

>  <Distance Scale>
1.25

>  <Energy Value>
-1.79

$$$$
/home/S66X8/2912_27BenzenePyridinepipi125.xyz
 OpenBabel06262409173D

 23 23  0  0  0  0  0  0  0  0999 V2000
    0.8187    0.8642    0.1883 C   0  0  0  0  0  0  0  0  0  0  0  0
    1.4661    1.7167    0.3447 H   0  0  0  0  0  0  0  0  0  0  0  0
    1.3690   -0.3905   -0.0667 C   0  0  0  0  0  0  0  0  0  0  0  0
    2.4430   -0.5119   -0.1106 H   0  0  0  0  0  0  0  0  0  0  0  0
    0.5344   -1.4885   -0.2719 C   0  0  0  0  0  0  0  0  0  0  0  0
    0.9608   -2.4616   -0.4755 H   0  0  0  0  0  0  0  0  0  0  0  0
   -0.8491   -1.3305   -0.2199 C   0  0  0  0  0  0  0  0  0  0  0  0
   -1.4971   -2.1819   -0.3796 H   0  0  0  0  0  0  0  0  0  0  0  0
   -1.3995   -0.0760    0.0404 C   0  0  0  0  0  0  0  0  0  0  0  0
   -2.4727    0.0449    0.0934 H   0  0  0  0  0  0  0  0  0  0  0  0
   -0.5653    1.0214    0.2423 C   0  0  0  0  0  0  0  0  0  0  0  0
   -0.9926    1.9937    0.4463 H   0  0  0  0  0  0  0  0  0  0  0  0
   -2.6072    0.2643    4.2800 N   0  0  0  0  0  0  0  0  0  0  0  0
   -1.9924    1.4220    4.5600 C   0  0  0  0  0  0  0  0  0  0  0  0
   -2.6400    2.2752    4.7225 H   0  0  0  0  0  0  0  0  0  0  0  0
   -0.6101    1.5629    4.6502 C   0  0  0  0  0  0  0  0  0  0  0  0
   -0.1783    2.5265    4.8814 H   0  0  0  0  0  0  0  0  0  0  0  0
    0.1908    0.4459    4.4360 C   0  0  0  0  0  0  0  0  0  0  0  0
    1.2684    0.5163    4.4908 H   0  0  0  0  0  0  0  0  0  0  0  0
   -0.4297   -0.7628    4.1423 C   0  0  0  0  0  0  0  0  0  0  0  0
    0.1460   -1.6584    3.9582 H   0  0  0  0  0  0  0  0  0  0  0  0
   -1.8203   -0.8008    4.0769 C   0  0  0  0  0  0  0  0  0  0  0  0
   -2.3291   -1.7293    3.8480 H   0  0  0  0  0  0  0  0  0  0  0  0
  1 11  1  0  0  0  0
  1  2  1  0  0  0  0
  3  1  2  0  0  0  0
  4  3  1  0  0  0  0
  5  7  2  0  0  0  0
  5  3  1  0  0  0  0
  6  5  1  0  0  0  0
  7  9  1  0  0  0  0
  8  7  1  0  0  0  0
  9 10  1  0  0  0  0
  9 11  2  0  0  0  0
 11 12  1  0  0  0  0
 13 14  1  0  0  0  0
 14 16  2  0  0  0  0
 14 15  1  0  0  0  0
 16 17  1  0  0  0  0
 18 19  1  0  0  0  0
 18 16  1  0  0  0  0
 20 18  2  0  0  0  0
 21 20  1  0  0  0  0
 22 20  1  0  0  0  0
 22 13  2  0  0  0  0
 23 22  1  0  0  0  0
M  END
>  <SMILES>
c1ccccc1.n1ccccc1

>  <MoleculeName>
BenzenePyridinepipi125

>  <Distance Scale>
1.25

>  <Energy Value>
-1.97

$$$$
/home/S66X8/3183_61PentaneAcOH110.xyz
 OpenBabel06262409173D

 25 23  0  0  0  0  0  0  0  0999 V2000
   -2.2753   -0.1351    0.8313 C   0  0  0  0  0  0  0  0  0  0  0  0
   -2.4907   -0.7279   -0.0576 H   0  0  0  0  0  0  0  0  0  0  0  0
   -2.2263   -0.8184    1.6788 H   0  0  0  0  0  0  0  0  0  0  0  0
   -3.1120    0.5449    0.9874 H   0  0  0  0  0  0  0  0  0  0  0  0
   -0.9617    0.6193    0.6694 C   0  0  0  0  0  0  0  0  0  0  0  0
   -0.7887    1.2504    1.5447 H   0  0  0  0  0  0  0  0  0  0  0  0
   -1.0262    1.2954   -0.1865 H   0  0  0  0  0  0  0  0  0  0  0  0
    0.2265   -0.3147    0.4800 C   0  0  0  0  0  0  0  0  0  0  0  0
    0.3094   -0.9751    1.3480 H   0  0  0  0  0  0  0  0  0  0  0  0
    0.0392   -0.9660   -0.3788 H   0  0  0  0  0  0  0  0  0  0  0  0
    1.5430    0.4212    0.2690 C   0  0  0  0  0  0  0  0  0  0  0  0
    1.7116    1.1078    1.1024 H   0  0  0  0  0  0  0  0  0  0  0  0
    1.4661    1.0437   -0.6253 H   0  0  0  0  0  0  0  0  0  0  0  0
    2.7276   -0.5269    0.1375 C   0  0  0  0  0  0  0  0  0  0  0  0
    2.5887   -1.2032   -0.7058 H   0  0  0  0  0  0  0  0  0  0  0  0
    3.6615    0.0117   -0.0160 H   0  0  0  0  0  0  0  0  0  0  0  0
    2.8352   -1.1374    1.0341 H   0  0  0  0  0  0  0  0  0  0  0  0
   -0.5450   -0.3038    4.4361 C   0  0  0  0  0  0  0  0  0  0  0  0
   -0.9677   -1.4190    4.2389 O   0  0  0  0  0  0  0  0  0  0  0  0
   -1.3587    0.7552    4.6687 O   0  0  0  0  0  0  0  0  0  0  0  0
   -2.2595    0.4008    4.6281 H   0  0  0  0  0  0  0  0  0  0  0  0
    0.8952    0.1059    4.4533 C   0  0  0  0  0  0  0  0  0  0  0  0
    1.5211   -0.7643    4.2951 H   0  0  0  0  0  0  0  0  0  0  0  0
    1.0713    0.8401    3.6702 H   0  0  0  0  0  0  0  0  0  0  0  0
    1.1325    0.5752    5.4051 H   0  0  0  0  0  0  0  0  0  0  0  0
  1  4  1  0  0  0  0
  1  3  1  0  0  0  0
  2  1  1  0  0  0  0
  5  1  1  0  0  0  0
  5  6  1  0  0  0  0
  7  5  1  0  0  0  0
  8  5  1  0  0  0  0
  8  9  1  0  0  0  0
 10  8  1  0  0  0  0
 11  8  1  0  0  0  0
 11 12  1  0  0  0  0
 13 11  1  0  0  0  0
 14 11  1  0  0  0  0
 14 17  1  0  0  0  0
 15 14  1  0  0  0  0
 16 14  1  0  0  0  0
 18 22  1  0  0  0  0
 18 20  1  0  0  0  0
 19 18  2  0  0  0  0
 21 20  1  0  0  0  0
 22 25  1  0  0  0  0
 23 22  1  0  0  0  0
 24 22  1  0  0  0  0
M  END
>  <SMILES>
CCCCC.C(=O)(O)C

>  <MoleculeName>
PentaneAcOH110

>  <Distance Scale>
1.1

>  <Energy Value>
-2.52

$$$$
/home/S66X8/3088_49BenzenePyridineTS125.xyz
 OpenBabel06262409173D

 23 23  0  0  0  0  0  0  0  0999 V2000
    0.8451    1.0579    0.6995 C   0  0  0  0  0  0  0  0  0  0  0  0
    1.5064    1.9032    0.8334 H   0  0  0  0  0  0  0  0  0  0  0  0
    1.3755   -0.2175    0.5112 C   0  0  0  0  0  0  0  0  0  0  0  0
    2.4472   -0.3615    0.5029 H   0  0  0  0  0  0  0  0  0  0  0  0
    0.5241   -1.3070    0.3332 C   0  0  0  0  0  0  0  0  0  0  0  0
    0.9357   -2.2960    0.1849 H   0  0  0  0  0  0  0  0  0  0  0  0
   -0.8577   -1.1215    0.3464 C   0  0  0  0  0  0  0  0  0  0  0  0
   -1.5184   -1.9665    0.2084 H   0  0  0  0  0  0  0  0  0  0  0  0
   -1.3880    0.1536    0.5376 C   0  0  0  0  0  0  0  0  0  0  0  0
   -2.4597    0.2974    0.5500 H   0  0  0  0  0  0  0  0  0  0  0  0
   -0.5366    1.2434    0.7127 C   0  0  0  0  0  0  0  0  0  0  0  0
   -0.9489    2.2328    0.8574 H   0  0  0  0  0  0  0  0  0  0  0  0
    0.0139    0.2035    7.5052 N   0  0  0  0  0  0  0  0  0  0  0  0
    0.1686    1.1415    6.5603 C   0  0  0  0  0  0  0  0  0  0  0  0
    0.3104    2.1540    6.9182 H   0  0  0  0  0  0  0  0  0  0  0  0
    0.1544    0.8742    5.1938 C   0  0  0  0  0  0  0  0  0  0  0  0
    0.2846    1.6752    4.4799 H   0  0  0  0  0  0  0  0  0  0  0  0
   -0.0300   -0.4374    4.7685 C   0  0  0  0  0  0  0  0  0  0  0  0
   -0.0465   -0.6805    3.7151 H   0  0  0  0  0  0  0  0  0  0  0  0
   -0.1918   -1.4225    5.7373 C   0  0  0  0  0  0  0  0  0  0  0  0
   -0.3383   -2.4577    5.4626 H   0  0  0  0  0  0  0  0  0  0  0  0
   -0.1626   -1.0551    7.0804 C   0  0  0  0  0  0  0  0  0  0  0  0
   -0.2862   -1.8026    7.8545 H   0  0  0  0  0  0  0  0  0  0  0  0
  1 11  1  0  0  0  0
  1  2  1  0  0  0  0
  3  1  2  0  0  0  0
  4  3  1  0  0  0  0
  5  7  2  0  0  0  0
  5  3  1  0  0  0  0
  6  5  1  0  0  0  0
  7  9  1  0  0  0  0
  8  7  1  0  0  0  0
  9 10  1  0  0  0  0
  9 11  2  0  0  0  0
 11 12  1  0  0  0  0
 14 15  1  0  0  0  0
 14 13  2  0  0  0  0
 16 14  1  0  0  0  0
 17 16  1  0  0  0  0
 18 16  2  0  0  0  0
 18 20  1  0  0  0  0
 19 18  1  0  0  0  0
 20 22  2  0  0  0  0
 21 20  1  0  0  0  0
 22 13  1  0  0  0  0
 22 23  1  0  0  0  0
M  END
>  <SMILES>
c1ccccc1.n1ccccc1

>  <MoleculeName>
BenzenePyridineTS125

>  <Distance Scale>
1.25

>  <Energy Value>
-2.1

$$$$
/home/S66X8/3084_49BenzenePyridineTS095.xyz
 OpenBabel06262409173D

 23 23  0  0  0  0  0  0  0  0999 V2000
    0.8451    1.0579    0.6995 C   0  0  0  0  0  0  0  0  0  0  0  0
    1.5064    1.9032    0.8334 H   0  0  0  0  0  0  0  0  0  0  0  0
    1.3755   -0.2175    0.5112 C   0  0  0  0  0  0  0  0  0  0  0  0
    2.4472   -0.3615    0.5029 H   0  0  0  0  0  0  0  0  0  0  0  0
    0.5241   -1.3070    0.3332 C   0  0  0  0  0  0  0  0  0  0  0  0
    0.9357   -2.2960    0.1849 H   0  0  0  0  0  0  0  0  0  0  0  0
   -0.8577   -1.1215    0.3464 C   0  0  0  0  0  0  0  0  0  0  0  0
   -1.5184   -1.9665    0.2084 H   0  0  0  0  0  0  0  0  0  0  0  0
   -1.3880    0.1536    0.5376 C   0  0  0  0  0  0  0  0  0  0  0  0
   -2.4597    0.2974    0.5500 H   0  0  0  0  0  0  0  0  0  0  0  0
   -0.5366    1.2434    0.7127 C   0  0  0  0  0  0  0  0  0  0  0  0
   -0.9489    2.2328    0.8574 H   0  0  0  0  0  0  0  0  0  0  0  0
    0.0255    0.3911    6.5821 N   0  0  0  0  0  0  0  0  0  0  0  0
    0.1802    1.3291    5.6372 C   0  0  0  0  0  0  0  0  0  0  0  0
    0.3220    2.3416    5.9951 H   0  0  0  0  0  0  0  0  0  0  0  0
    0.1660    1.0618    4.2707 C   0  0  0  0  0  0  0  0  0  0  0  0
    0.2963    1.8628    3.5568 H   0  0  0  0  0  0  0  0  0  0  0  0
   -0.0183   -0.2498    3.8454 C   0  0  0  0  0  0  0  0  0  0  0  0
   -0.0349   -0.4929    2.7920 H   0  0  0  0  0  0  0  0  0  0  0  0
   -0.1802   -1.2348    4.8143 C   0  0  0  0  0  0  0  0  0  0  0  0
   -0.3267   -2.2701    4.5395 H   0  0  0  0  0  0  0  0  0  0  0  0
   -0.1510   -0.8675    6.1573 C   0  0  0  0  0  0  0  0  0  0  0  0
   -0.2746   -1.6150    6.9314 H   0  0  0  0  0  0  0  0  0  0  0  0
  1 11  1  0  0  0  0
  1  2  1  0  0  0  0
  3  1  2  0  0  0  0
  4  3  1  0  0  0  0
  5  7  2  0  0  0  0
  5  3  1  0  0  0  0
  6  5  1  0  0  0  0
  7  9  1  0  0  0  0
  8  7  1  0  0  0  0
  9 10  1  0  0  0  0
  9 11  2  0  0  0  0
 11 12  1  0  0  0  0
 14 15  1  0  0  0  0
 14 13  2  0  0  0  0
 16 14  1  0  0  0  0
 17 16  1  0  0  0  0
 18 16  2  0  0  0  0
 18 20  1  0  0  0  0
 19 18  1  0  0  0  0
 20 22  2  0  0  0  0
 21 20  1  0  0  0  0
 22 13  1  0  0  0  0
 22 23  1  0  0  0  0
M  END
>  <SMILES>
c1ccccc1.n1ccccc1

>  <MoleculeName>
BenzenePyridineTS095

>  <Distance Scale>
0.95

>  <Energy Value>
-3.04

$$$$
/home/S66X8/3157_58PyridinePyridineCHN100.xyz
 OpenBabel06262409173D

 22 22  0  0  0  0  0  0  0  0999 V2000
   -0.9412    0.7900    0.0117 N   0  0  0  0  0  0  0  0  0  0  0  0
   -0.9228   -0.5524    0.0354 C   0  0  0  0  0  0  0  0  0  0  0  0
    0.0572   -1.0156    0.0514 H   0  0  0  0  0  0  0  0  0  0  0  0
   -2.0765   -1.3330    0.0393 C   0  0  0  0  0  0  0  0  0  0  0  0
   -1.9965   -2.4106    0.0589 H   0  0  0  0  0  0  0  0  0  0  0  0
   -3.3163   -0.7033    0.0176 C   0  0  0  0  0  0  0  0  0  0  0  0
   -4.2316   -1.2791    0.0198 H   0  0  0  0  0  0  0  0  0  0  0  0
   -3.3489    0.6870   -0.0071 C   0  0  0  0  0  0  0  0  0  0  0  0
   -4.2854    1.2261   -0.0247 H   0  0  0  0  0  0  0  0  0  0  0  0
   -2.1431    1.3826   -0.0089 C   0  0  0  0  0  0  0  0  0  0  0  0
   -2.1381    2.4657   -0.0278 H   0  0  0  0  0  0  0  0  0  0  0  0
    2.5360   -0.9500    0.0425 N   0  0  0  0  0  0  0  0  0  0  0  0
    3.7378   -1.5431    0.0446 C   0  0  0  0  0  0  0  0  0  0  0  0
    3.7325   -2.6261    0.0665 H   0  0  0  0  0  0  0  0  0  0  0  0
    4.9437   -0.8482    0.0206 C   0  0  0  0  0  0  0  0  0  0  0  0
    5.8801   -1.3877    0.0237 H   0  0  0  0  0  0  0  0  0  0  0  0
    4.9114    0.5421   -0.0072 C   0  0  0  0  0  0  0  0  0  0  0  0
    5.8268    1.1174   -0.0263 H   0  0  0  0  0  0  0  0  0  0  0  0
    3.6717    1.1724   -0.0096 C   0  0  0  0  0  0  0  0  0  0  0  0
    3.5919    2.2500   -0.0307 H   0  0  0  0  0  0  0  0  0  0  0  0
    2.5178    0.3924    0.0156 C   0  0  0  0  0  0  0  0  0  0  0  0
    1.5379    0.8561    0.0139 H   0  0  0  0  0  0  0  0  0  0  0  0
  1  2  1  0  0  0  0
  2  4  2  0  0  0  0
  2  3  1  0  0  0  0
  4  5  1  0  0  0  0
  6  7  1  0  0  0  0
  6  4  1  0  0  0  0
  8  6  2  0  0  0  0
  9  8  1  0  0  0  0
 10  8  1  0  0  0  0
 10  1  2  0  0  0  0
 11 10  1  0  0  0  0
 12 13  1  0  0  0  0
 13 14  1  0  0  0  0
 15 16  1  0  0  0  0
 15 13  2  0  0  0  0
 17 15  1  0  0  0  0
 18 17  1  0  0  0  0
 19 17  2  0  0  0  0
 19 21  1  0  0  0  0
 20 19  1  0  0  0  0
 21 12  2  0  0  0  0
 22 21  1  0  0  0  0
M  END
>  <SMILES>
n1ccccc1.n1ccccc1

>  <MoleculeName>
PyridinePyridineCHN100

>  <Distance Scale>
1.0

>  <Energy Value>
-4.15

$$$$
/home/S66X8/2718_03WaterMeNH2105.xyz
 OpenBabel06262409173D

 10  8  0  0  0  0  0  0  0  0999 V2000
   -0.6875   -0.1117   -0.0196 O   0  0  0  0  0  0  0  0  0  0  0  0
   -1.0461    0.7759    0.0127 H   0  0  0  0  0  0  0  0  0  0  0  0
    0.2740    0.0259   -0.0035 H   0  0  0  0  0  0  0  0  0  0  0  0
    2.3850    0.1091    0.0066 N   0  0  0  0  0  0  0  0  0  0  0  0
    2.6804   -0.4435   -0.7882 H   0  0  0  0  0  0  0  0  0  0  0  0
    2.6951   -0.4016    0.8234 H   0  0  0  0  0  0  0  0  0  0  0  0
    3.0444    1.4175   -0.0337 C   0  0  0  0  0  0  0  0  0  0  0  0
    2.7338    1.9992    0.8308 H   0  0  0  0  0  0  0  0  0  0  0  0
    4.1357    1.3782   -0.0426 H   0  0  0  0  0  0  0  0  0  0  0  0
    2.7177    1.9534   -0.9215 H   0  0  0  0  0  0  0  0  0  0  0  0
  1  3  1  0  0  0  0
  1  2  1  0  0  0  0
  4  6  1  0  0  0  0
  5  4  1  0  0  0  0
  7  4  1  0  0  0  0
  7  8  1  0  0  0  0
  9  7  1  0  0  0  0
 10  7  1  0  0  0  0
M  END
>  <SMILES>
O.NC

>  <MoleculeName>
WaterMeNH2105

>  <Distance Scale>
1.05

>  <Energy Value>
-6.65

$$$$
/home/S66X8/3022_41UracilPentane105.xyz
 OpenBabel06262409173D

 29 28  0  0  0  0  0  0  0  0999 V2000
   -0.2089   -0.9646    0.5348 N   0  0  0  0  0  0  0  0  0  0  0  0
   -0.2242   -1.9731    0.6051 H   0  0  0  0  0  0  0  0  0  0  0  0
   -1.4463   -0.3446    0.3067 C   0  0  0  0  0  0  0  0  0  0  0  0
   -2.4612   -1.0108    0.1979 O   0  0  0  0  0  0  0  0  0  0  0  0
   -1.3578    1.1032    0.2281 C   0  0  0  0  0  0  0  0  0  0  0  0
   -2.2566    1.6677    0.0498 H   0  0  0  0  0  0  0  0  0  0  0  0
   -0.1630    1.7099    0.3811 C   0  0  0  0  0  0  0  0  0  0  0  0
   -0.0463    2.7824    0.3333 H   0  0  0  0  0  0  0  0  0  0  0  0
    0.9855    1.0008    0.6112 N   0  0  0  0  0  0  0  0  0  0  0  0
    1.8676    1.4669    0.7448 H   0  0  0  0  0  0  0  0  0  0  0  0
    1.0270   -0.3792    0.7126 C   0  0  0  0  0  0  0  0  0  0  0  0
    2.0492   -0.9974    0.9373 O   0  0  0  0  0  0  0  0  0  0  0  0
    1.1563    2.3590    4.2337 C   0  0  0  0  0  0  0  0  0  0  0  0
    0.7254    2.6700    3.2809 H   0  0  0  0  0  0  0  0  0  0  0  0
    0.5220    2.7644    5.0219 H   0  0  0  0  0  0  0  0  0  0  0  0
    2.1391    2.8194    4.3268 H   0  0  0  0  0  0  0  0  0  0  0  0
    1.2293    0.8401    4.3232 C   0  0  0  0  0  0  0  0  0  0  0  0
    1.6597    0.5505    5.2845 H   0  0  0  0  0  0  0  0  0  0  0  0
    1.9039    0.4489    3.5581 H   0  0  0  0  0  0  0  0  0  0  0  0
   -0.1355    0.1819    4.1684 C   0  0  0  0  0  0  0  0  0  0  0  0
   -0.8068    0.5508    4.9500 H   0  0  0  0  0  0  0  0  0  0  0  0
   -0.5830    0.4922    3.2185 H   0  0  0  0  0  0  0  0  0  0  0  0
   -0.0792   -1.3388    4.2280 C   0  0  0  0  0  0  0  0  0  0  0  0
    0.3444   -1.6412    5.1886 H   0  0  0  0  0  0  0  0  0  0  0  0
    0.6123   -1.7006    3.4635 H   0  0  0  0  0  0  0  0  0  0  0  0
   -1.4485   -1.9806    4.0442 C   0  0  0  0  0  0  0  0  0  0  0  0
   -1.8869   -1.7072    3.0841 H   0  0  0  0  0  0  0  0  0  0  0  0
   -1.3916   -3.0674    4.0883 H   0  0  0  0  0  0  0  0  0  0  0  0
   -2.1365   -1.6523    4.8235 H   0  0  0  0  0  0  0  0  0  0  0  0
  1  2  1  0  0  0  0
  1 11  1  0  0  0  0
  3  1  1  0  0  0  0
  4  3  2  0  0  0  0
  5  3  1  0  0  0  0
  5  7  2  0  0  0  0
  6  5  1  0  0  0  0
  7  9  1  0  0  0  0
  8  7  1  0  0  0  0
  9 11  1  0  0  0  0
  9 10  1  0  0  0  0
 11 12  2  0  0  0  0
 13 17  1  0  0  0  0
 13 16  1  0  0  0  0
 13 15  1  0  0  0  0
 14 13  1  0  0  0  0
 17 18  1  0  0  0  0
 19 17  1  0  0  0  0
 20 23  1  0  0  0  0
 20 17  1  0  0  0  0
 20 21  1  0  0  0  0
 22 20  1  0  0  0  0
 23 24  1  0  0  0  0
 25 23  1  0  0  0  0
 26 28  1  0  0  0  0
 26 23  1  0  0  0  0
 26 29  1  0  0  0  0
 27 26  1  0  0  0  0
M  END
>  <SMILES>
[nH]1c(=O)cc[nH]c1=O.CCCCC

>  <MoleculeName>
UracilPentane105

>  <Distance Scale>
1.05

>  <Energy Value>
-4.6

$$$$
/home/S66X8/3221_66MeNH2Pyridine100.xyz
 OpenBabel06262409173D

 18 17  0  0  0  0  0  0  0  0999 V2000
   -0.5411    0.0296   -0.2090 N   0  0  0  0  0  0  0  0  0  0  0  0
    0.0556   -0.7861   -0.1303 H   0  0  0  0  0  0  0  0  0  0  0  0
   -1.4697   -0.2747    0.0531 H   0  0  0  0  0  0  0  0  0  0  0  0
   -0.0788    1.0424    0.7385 C   0  0  0  0  0  0  0  0  0  0  0  0
   -0.7202    1.9194    0.6720 H   0  0  0  0  0  0  0  0  0  0  0  0
   -0.0508    0.7238    1.7855 H   0  0  0  0  0  0  0  0  0  0  0  0
    0.9264    1.3566    0.4620 H   0  0  0  0  0  0  0  0  0  0  0  0
    2.3586   -1.2603    0.0313 N   0  0  0  0  0  0  0  0  0  0  0  0
    2.6971   -0.4479   -0.9804 C   0  0  0  0  0  0  0  0  0  0  0  0
    2.1544   -0.5925   -1.9058 H   0  0  0  0  0  0  0  0  0  0  0  0
    3.6684    0.5442   -0.8800 C   0  0  0  0  0  0  0  0  0  0  0  0
    3.8933    1.1686   -1.7329 H   0  0  0  0  0  0  0  0  0  0  0  0
    4.3292    0.7138    0.3323 C   0  0  0  0  0  0  0  0  0  0  0  0
    5.0871    1.4760    0.4486 H   0  0  0  0  0  0  0  0  0  0  0  0
    3.9891   -0.1212    1.3914 C   0  0  0  0  0  0  0  0  0  0  0  0
    4.4717   -0.0307    2.3541 H   0  0  0  0  0  0  0  0  0  0  0  0
    3.0053   -1.0860    1.1922 C   0  0  0  0  0  0  0  0  0  0  0  0
    2.7192   -1.7497    1.9988 H   0  0  0  0  0  0  0  0  0  0  0  0
  1  2  1  0  0  0  0
  1  3  1  0  0  0  0
  1  4  1  0  0  0  0
  4  6  1  0  0  0  0
  5  4  1  0  0  0  0
  7  4  1  0  0  0  0
  8 17  1  0  0  0  0
  9 11  1  0  0  0  0
  9  8  2  0  0  0  0
 10  9  1  0  0  0  0
 11 13  2  0  0  0  0
 12 11  1  0  0  0  0
 13 14  1  0  0  0  0
 13 15  1  0  0  0  0
 15 16  1  0  0  0  0
 17 15  2  0  0  0  0
 17 18  1  0  0  0  0
M  END
>  <SMILES>
NC.n1ccccc1

>  <MoleculeName>
MeNH2Pyridine100

>  <Distance Scale>
1.0

>  <Energy Value>
-3.97

$$$$
/home/S66X8/2793_12MeNH2Water150.xyz
 OpenBabel06262409173D

 10  8  0  0  0  0  0  0  0  0999 V2000
   -0.5335   -0.2796    0.1070 N   0  0  0  0  0  0  0  0  0  0  0  0
   -0.6292   -1.2484    0.3828 H   0  0  0  0  0  0  0  0  0  0  0  0
   -1.1226   -0.1662   -0.7078 H   0  0  0  0  0  0  0  0  0  0  0  0
   -1.0169    0.5885    1.1874 C   0  0  0  0  0  0  0  0  0  0  0  0
   -0.9128    1.6256    0.8795 H   0  0  0  0  0  0  0  0  0  0  0  0
   -2.0547    0.4151    1.4785 H   0  0  0  0  0  0  0  0  0  0  0  0
   -0.3850    0.4488    2.0606 H   0  0  0  0  0  0  0  0  0  0  0  0
    3.0515    1.2884    0.1761 O   0  0  0  0  0  0  0  0  0  0  0  0
    2.2340    0.7921    0.0029 H   0  0  0  0  0  0  0  0  0  0  0  0
    3.6334    1.0299   -0.5397 H   0  0  0  0  0  0  0  0  0  0  0  0
  1  2  1  0  0  0  0
  1  4  1  0  0  0  0
  3  1  1  0  0  0  0
  4  6  1  0  0  0  0
  4  7  1  0  0  0  0
  5  4  1  0  0  0  0
  9  8  1  0  0  0  0
 10  8  1  0  0  0  0
M  END
>  <SMILES>
NC.O

>  <MoleculeName>
MeNH2Water150

>  <Distance Scale>
1.5

>  <Energy Value>
-3.15

$$$$
/home/S66X8/3182_61PentaneAcOH105.xyz
 OpenBabel06262409173D

 25 23  0  0  0  0  0  0  0  0999 V2000
   -2.2753   -0.1351    0.8313 C   0  0  0  0  0  0  0  0  0  0  0  0
   -2.4907   -0.7279   -0.0576 H   0  0  0  0  0  0  0  0  0  0  0  0
   -2.2263   -0.8184    1.6788 H   0  0  0  0  0  0  0  0  0  0  0  0
   -3.1120    0.5449    0.9874 H   0  0  0  0  0  0  0  0  0  0  0  0
   -0.9617    0.6193    0.6694 C   0  0  0  0  0  0  0  0  0  0  0  0
   -0.7887    1.2504    1.5447 H   0  0  0  0  0  0  0  0  0  0  0  0
   -1.0262    1.2954   -0.1865 H   0  0  0  0  0  0  0  0  0  0  0  0
    0.2265   -0.3147    0.4800 C   0  0  0  0  0  0  0  0  0  0  0  0
    0.3094   -0.9751    1.3480 H   0  0  0  0  0  0  0  0  0  0  0  0
    0.0392   -0.9660   -0.3788 H   0  0  0  0  0  0  0  0  0  0  0  0
    1.5430    0.4212    0.2690 C   0  0  0  0  0  0  0  0  0  0  0  0
    1.7116    1.1078    1.1024 H   0  0  0  0  0  0  0  0  0  0  0  0
    1.4661    1.0437   -0.6253 H   0  0  0  0  0  0  0  0  0  0  0  0
    2.7276   -0.5269    0.1375 C   0  0  0  0  0  0  0  0  0  0  0  0
    2.5887   -1.2032   -0.7058 H   0  0  0  0  0  0  0  0  0  0  0  0
    3.6615    0.0117   -0.0160 H   0  0  0  0  0  0  0  0  0  0  0  0
    2.8352   -1.1374    1.0341 H   0  0  0  0  0  0  0  0  0  0  0  0
   -0.5218   -0.2978    4.3172 C   0  0  0  0  0  0  0  0  0  0  0  0
   -0.9444   -1.4130    4.1201 O   0  0  0  0  0  0  0  0  0  0  0  0
   -1.3355    0.7612    4.5498 O   0  0  0  0  0  0  0  0  0  0  0  0
   -2.2363    0.4068    4.5093 H   0  0  0  0  0  0  0  0  0  0  0  0
    0.9184    0.1119    4.3344 C   0  0  0  0  0  0  0  0  0  0  0  0
    1.5443   -0.7583    4.1763 H   0  0  0  0  0  0  0  0  0  0  0  0
    1.0945    0.8461    3.5513 H   0  0  0  0  0  0  0  0  0  0  0  0
    1.1557    0.5812    5.2862 H   0  0  0  0  0  0  0  0  0  0  0  0
  1  4  1  0  0  0  0
  1  3  1  0  0  0  0
  2  1  1  0  0  0  0
  5  1  1  0  0  0  0
  5  6  1  0  0  0  0
  7  5  1  0  0  0  0
  8  5  1  0  0  0  0
  8  9  1  0  0  0  0
 10  8  1  0  0  0  0
 11  8  1  0  0  0  0
 11 12  1  0  0  0  0
 13 11  1  0  0  0  0
 14 11  1  0  0  0  0
 14 17  1  0  0  0  0
 15 14  1  0  0  0  0
 16 14  1  0  0  0  0
 18 22  1  0  0  0  0
 18 20  1  0  0  0  0
 19 18  2  0  0  0  0
 21 20  1  0  0  0  0
 22 25  1  0  0  0  0
 23 22  1  0  0  0  0
 24 22  1  0  0  0  0
M  END
>  <SMILES>
CCCCC.C(=O)(O)C

>  <MoleculeName>
PentaneAcOH105

>  <Distance Scale>
1.05

>  <Energy Value>
-2.73

$$$$
/home/S66X8/2856_20AcOHAcOH125.xyz
 OpenBabel06262409173D

 16 14  0  0  0  0  0  0  0  0999 V2000
   -1.0617    1.2971    0.2921 C   0  0  0  0  0  0  0  0  0  0  0  0
   -0.3582    2.2705    0.5318 O   0  0  0  0  0  0  0  0  0  0  0  0
   -0.5893    0.0949    0.0038 O   0  0  0  0  0  0  0  0  0  0  0  0
    0.4044    0.1277    0.0184 H   0  0  0  0  0  0  0  0  0  0  0  0
   -2.5584    1.3425    0.2963 C   0  0  0  0  0  0  0  0  0  0  0  0
   -2.8960    2.3475    0.5183 H   0  0  0  0  0  0  0  0  0  0  0  0
   -2.9329    1.0224   -0.6730 H   0  0  0  0  0  0  0  0  0  0  0  0
   -2.9372    0.6449    1.0396 H   0  0  0  0  0  0  0  0  0  0  0  0
    3.2225    1.1103    0.2745 C   0  0  0  0  0  0  0  0  0  0  0  0
    2.5189    0.1370    0.0347 O   0  0  0  0  0  0  0  0  0  0  0  0
    2.7501    2.3128    0.5623 O   0  0  0  0  0  0  0  0  0  0  0  0
    1.7563    2.2799    0.5479 H   0  0  0  0  0  0  0  0  0  0  0  0
    4.7193    1.0644    0.2725 C   0  0  0  0  0  0  0  0  0  0  0  0
    5.0568    0.0631    0.0350 H   0  0  0  0  0  0  0  0  0  0  0  0
    5.1008    1.7748   -0.4569 H   0  0  0  0  0  0  0  0  0  0  0  0
    5.0908    1.3671    1.2486 H   0  0  0  0  0  0  0  0  0  0  0  0
  1  5  1  0  0  0  0
  1  2  2  0  0  0  0
  3  4  1  0  0  0  0
  3  1  1  0  0  0  0
  5  6  1  0  0  0  0
  5  8  1  0  0  0  0
  7  5  1  0  0  0  0
  9 11  1  0  0  0  0
 10  9  2  0  0  0  0
 12 11  1  0  0  0  0
 13  9  1  0  0  0  0
 13 16  1  0  0  0  0
 14 13  1  0  0  0  0
 15 13  1  0  0  0  0
M  END
>  <SMILES>
C(=O)(O)C.C(=O)(O)C

>  <MoleculeName>
AcOHAcOH125

>  <Distance Scale>
1.25

>  <Energy Value>
-14.56

$$$$
/home/S66X8/3154_57BenzenePeptideNHpi200.xyz
 OpenBabel06262409173D

 24 23  0  0  0  0  0  0  0  0999 V2000
    0.4088    1.0510    0.3755 C   0  0  0  0  0  0  0  0  0  0  0  0
    1.0119    1.9485    0.3681 H   0  0  0  0  0  0  0  0  0  0  0  0
    1.0192   -0.1998    0.2891 C   0  0  0  0  0  0  0  0  0  0  0  0
    2.0956   -0.2718    0.2172 H   0  0  0  0  0  0  0  0  0  0  0  0
    0.2417   -1.3569    0.2967 C   0  0  0  0  0  0  0  0  0  0  0  0
    0.7152   -2.3266    0.2281 H   0  0  0  0  0  0  0  0  0  0  0  0
   -1.1462   -1.2643    0.3939 C   0  0  0  0  0  0  0  0  0  0  0  0
   -1.7492   -2.1619    0.3994 H   0  0  0  0  0  0  0  0  0  0  0  0
   -1.7573   -0.0140    0.4830 C   0  0  0  0  0  0  0  0  0  0  0  0
   -2.8335    0.0582    0.5590 H   0  0  0  0  0  0  0  0  0  0  0  0
   -0.9797    1.1442    0.4723 C   0  0  0  0  0  0  0  0  0  0  0  0
   -1.4541    2.1140    0.5371 H   0  0  0  0  0  0  0  0  0  0  0  0
    0.2981    2.0784    7.0846 C   0  0  0  0  0  0  0  0  0  0  0  0
   -0.0601    2.2441    6.0713 H   0  0  0  0  0  0  0  0  0  0  0  0
    1.3226    2.4351    7.1660 H   0  0  0  0  0  0  0  0  0  0  0  0
   -0.3060    2.6521    7.7829 H   0  0  0  0  0  0  0  0  0  0  0  0
    0.2612    0.6253    7.5003 C   0  0  0  0  0  0  0  0  0  0  0  0
    0.5458    0.2729    8.6388 O   0  0  0  0  0  0  0  0  0  0  0  0
   -0.1112   -0.2405    6.5210 N   0  0  0  0  0  0  0  0  0  0  0  0
   -0.2723    0.1175    5.5950 H   0  0  0  0  0  0  0  0  0  0  0  0
   -0.1480   -1.6673    6.7391 C   0  0  0  0  0  0  0  0  0  0  0  0
   -0.0699   -1.8342    7.8091 H   0  0  0  0  0  0  0  0  0  0  0  0
   -1.0832   -2.0857    6.3724 H   0  0  0  0  0  0  0  0  0  0  0  0
    0.6812   -2.1712    6.2418 H   0  0  0  0  0  0  0  0  0  0  0  0
  1 11  1  0  0  0  0
  2  1  1  0  0  0  0
  3  5  1  0  0  0  0
  3  1  2  0  0  0  0
  4  3  1  0  0  0  0
  5  7  2  0  0  0  0
  6  5  1  0  0  0  0
  7  8  1  0  0  0  0
  7  9  1  0  0  0  0
  9 10  1  0  0  0  0
 11  9  2  0  0  0  0
 11 12  1  0  0  0  0
 13 15  1  0  0  0  0
 13 17  1  0  0  0  0
 13 16  1  0  0  0  0
 14 13  1  0  0  0  0
 17 18  2  0  0  0  0
 19 21  1  0  0  0  0
 19 17  1  0  0  0  0
 20 19  1  0  0  0  0
 21 22  1  0  0  0  0
 23 21  1  0  0  0  0
 24 21  1  0  0  0  0
M  END
>  <SMILES>
c1ccccc1.CC(=O)NC

>  <MoleculeName>
BenzenePeptideNHpi200

>  <Distance Scale>
2.0

>  <Energy Value>
-0.62

$$$$
/home/S66X8/3119_53BenzeneAcNH2NHpi110.xyz
 OpenBabel06262409173D

 21 20  0  0  0  0  0  0  0  0999 V2000
    0.8556    0.3585    1.0498 C   0  0  0  0  0  0  0  0  0  0  0  0
    1.5138    0.9027    1.7128 H   0  0  0  0  0  0  0  0  0  0  0  0
    1.3429   -0.6754    0.2512 C   0  0  0  0  0  0  0  0  0  0  0  0
    2.3929   -0.9333    0.2820 H   0  0  0  0  0  0  0  0  0  0  0  0
    0.4778   -1.3767   -0.5878 C   0  0  0  0  0  0  0  0  0  0  0  0
    0.8561   -2.1789   -1.2068 H   0  0  0  0  0  0  0  0  0  0  0  0
   -0.8748   -1.0426   -0.6305 C   0  0  0  0  0  0  0  0  0  0  0  0
   -1.5454   -1.5857   -1.2824 H   0  0  0  0  0  0  0  0  0  0  0  0
   -1.3624   -0.0070    0.1658 C   0  0  0  0  0  0  0  0  0  0  0  0
   -2.4116    0.2535    0.1308 H   0  0  0  0  0  0  0  0  0  0  0  0
   -0.4984    0.6932    1.0070 C   0  0  0  0  0  0  0  0  0  0  0  0
   -0.8661    1.4903    1.6380 H   0  0  0  0  0  0  0  0  0  0  0  0
    0.0376    0.3569    5.0550 C   0  0  0  0  0  0  0  0  0  0  0  0
    0.2841    1.4003    4.4678 O   0  0  0  0  0  0  0  0  0  0  0  0
   -0.2665   -0.7981    4.4038 N   0  0  0  0  0  0  0  0  0  0  0  0
   -0.2413   -0.8051    3.3972 H   0  0  0  0  0  0  0  0  0  0  0  0
   -0.4222   -1.6536    4.8995 H   0  0  0  0  0  0  0  0  0  0  0  0
    0.0604    0.2620    6.5634 C   0  0  0  0  0  0  0  0  0  0  0  0
    1.0921    0.3462    6.8985 H   0  0  0  0  0  0  0  0  0  0  0  0
   -0.3615   -0.6646    6.9444 H   0  0  0  0  0  0  0  0  0  0  0  0
   -0.4890    1.1059    6.9702 H   0  0  0  0  0  0  0  0  0  0  0  0
  1  2  1  0  0  0  0
  3  4  1  0  0  0  0
  3  1  2  0  0  0  0
  5  3  1  0  0  0  0
  6  5  1  0  0  0  0
  7  5  2  0  0  0  0
  7  9  1  0  0  0  0
  8  7  1  0  0  0  0
  9 11  2  0  0  0  0
 10  9  1  0  0  0  0
 11  1  1  0  0  0  0
 11 12  1  0  0  0  0
 13 18  1  0  0  0  0
 14 13  2  0  0  0  0
 15 17  1  0  0  0  0
 15 13  1  0  0  0  0
 16 15  1  0  0  0  0
 18 19  1  0  0  0  0
 18 20  1  0  0  0  0
 18 21  1  0  0  0  0
M  END
>  <SMILES>
c1ccccc1.C(=O)(N)C

>  <MoleculeName>
BenzeneAcNH2NHpi110

>  <Distance Scale>
1.1

>  <Energy Value>
-3.97

$$$$
/home/S66X8/2998_38CyclopentaneCyclopentane105.xyz
 OpenBabel06262409173D

 30 30  0  0  0  0  0  0  0  0999 V2000
    0.9569   -0.8918    1.1420 C   0  0  0  0  0  0  0  0  0  0  0  0
    1.5046   -1.2784    0.2834 H   0  0  0  0  0  0  0  0  0  0  0  0
    1.4214   -1.3148    2.0310 H   0  0  0  0  0  0  0  0  0  0  0  0
    0.9909    0.6585    1.1455 C   0  0  0  0  0  0  0  0  0  0  0  0
    1.5106    1.0231    0.2599 H   0  0  0  0  0  0  0  0  0  0  0  0
    1.5163    1.0598    2.0105 H   0  0  0  0  0  0  0  0  0  0  0  0
   -0.4795    1.1023    1.1039 C   0  0  0  0  0  0  0  0  0  0  0  0
   -0.6163    2.0649    0.6136 H   0  0  0  0  0  0  0  0  0  0  0  0
   -0.8747    1.1891    2.1181 H   0  0  0  0  0  0  0  0  0  0  0  0
   -1.1821   -0.0528    0.3933 C   0  0  0  0  0  0  0  0  0  0  0  0
   -0.9489   -0.0268   -0.6738 H   0  0  0  0  0  0  0  0  0  0  0  0
   -2.2657   -0.0336    0.5013 H   0  0  0  0  0  0  0  0  0  0  0  0
   -0.5307   -1.2749    1.0393 C   0  0  0  0  0  0  0  0  0  0  0  0
   -0.6904   -2.1970    0.4830 H   0  0  0  0  0  0  0  0  0  0  0  0
   -0.9508   -1.4154    2.0367 H   0  0  0  0  0  0  0  0  0  0  0  0
   -1.1284   -0.3767    5.2206 C   0  0  0  0  0  0  0  0  0  0  0  0
   -1.4615   -0.1400    4.2080 H   0  0  0  0  0  0  0  0  0  0  0  0
   -1.9332   -0.9198    5.7136 H   0  0  0  0  0  0  0  0  0  0  0  0
    0.1852   -1.1722    5.1728 C   0  0  0  0  0  0  0  0  0  0  0  0
    0.2352   -1.8300    4.3067 H   0  0  0  0  0  0  0  0  0  0  0  0
    0.2655   -1.8036    6.0572 H   0  0  0  0  0  0  0  0  0  0  0  0
    1.3145   -0.1095    5.1734 C   0  0  0  0  0  0  0  0  0  0  0  0
    1.9358   -0.1702    4.2816 H   0  0  0  0  0  0  0  0  0  0  0  0
    1.9720   -0.2594    6.0288 H   0  0  0  0  0  0  0  0  0  0  0  0
    0.6044    1.2522    5.2813 C   0  0  0  0  0  0  0  0  0  0  0  0
    0.4245    1.6607    4.2853 H   0  0  0  0  0  0  0  0  0  0  0  0
    1.1848    1.9866    5.8373 H   0  0  0  0  0  0  0  0  0  0  0  0
   -0.7377    0.9177    5.9311 C   0  0  0  0  0  0  0  0  0  0  0  0
   -1.4774    1.7102    5.8262 H   0  0  0  0  0  0  0  0  0  0  0  0
   -0.5976    0.7260    6.9977 H   0  0  0  0  0  0  0  0  0  0  0  0
  1  4  1  0  0  0  0
  1  3  1  0  0  0  0
  2  1  1  0  0  0  0
  4  6  1  0  0  0  0
  5  4  1  0  0  0  0
  7  4  1  0  0  0  0
  7  9  1  0  0  0  0
  8  7  1  0  0  0  0
 10 12  1  0  0  0  0
 10 13  1  0  0  0  0
 10  7  1  0  0  0  0
 11 10  1  0  0  0  0
 13  1  1  0  0  0  0
 13 15  1  0  0  0  0
 14 13  1  0  0  0  0
 16 18  1  0  0  0  0
 16 28  1  0  0  0  0
 17 16  1  0  0  0  0
 19 22  1  0  0  0  0
 19 16  1  0  0  0  0
 19 21  1  0  0  0  0
 20 19  1  0  0  0  0
 22 25  1  0  0  0  0
 22 24  1  0  0  0  0
 23 22  1  0  0  0  0
 25 27  1  0  0  0  0
 25 28  1  0  0  0  0
 26 25  1  0  0  0  0
 28 30  1  0  0  0  0
 29 28  1  0  0  0  0
M  END
>  <SMILES>
C1CCCC1.C1CCCC1

>  <MoleculeName>
CyclopentaneCyclopentane105

>  <Distance Scale>
1.05

>  <Energy Value>
-2.86

$$$$
/home/S66X8/2938_30BenzeneEthene200.xyz
 OpenBabel06262409173D

 18 17  0  0  0  0  0  0  0  0999 V2000
    0.8355    1.1152    0.0214 C   0  0  0  0  0  0  0  0  0  0  0  0
    1.4843    1.9806    0.0195 H   0  0  0  0  0  0  0  0  0  0  0  0
    1.3833   -0.1661    0.0238 C   0  0  0  0  0  0  0  0  0  0  0  0
    2.4571   -0.2952    0.0228 H   0  0  0  0  0  0  0  0  0  0  0  0
    0.5476   -1.2813    0.0217 C   0  0  0  0  0  0  0  0  0  0  0  0
    0.9729   -2.2758    0.0198 H   0  0  0  0  0  0  0  0  0  0  0  0
   -0.8355   -1.1152    0.0214 C   0  0  0  0  0  0  0  0  0  0  0  0
   -1.4843   -1.9806    0.0195 H   0  0  0  0  0  0  0  0  0  0  0  0
   -1.3833    0.1662    0.0238 C   0  0  0  0  0  0  0  0  0  0  0  0
   -2.4572    0.2952    0.0228 H   0  0  0  0  0  0  0  0  0  0  0  0
   -0.5476    1.2813    0.0217 C   0  0  0  0  0  0  0  0  0  0  0  0
   -0.9729    2.2758    0.0198 H   0  0  0  0  0  0  0  0  0  0  0  0
    0.6558   -0.1168    6.9508 C   0  0  0  0  0  0  0  0  0  0  0  0
    1.0472   -1.1239    6.9464 H   0  0  0  0  0  0  0  0  0  0  0  0
    1.3709    0.6933    6.9463 H   0  0  0  0  0  0  0  0  0  0  0  0
   -0.6558    0.1168    6.9508 C   0  0  0  0  0  0  0  0  0  0  0  0
   -1.3708   -0.6933    6.9463 H   0  0  0  0  0  0  0  0  0  0  0  0
   -1.0472    1.1239    6.9464 H   0  0  0  0  0  0  0  0  0  0  0  0
  1 11  2  0  0  0  0
  1  3  1  0  0  0  0
  2  1  1  0  0  0  0
  4  3  1  0  0  0  0
  5  3  2  0  0  0  0
  6  5  1  0  0  0  0
  7  5  1  0  0  0  0
  7  9  2  0  0  0  0
  8  7  1  0  0  0  0
 10  9  1  0  0  0  0
 11  9  1  0  0  0  0
 12 11  1  0  0  0  0
 13 16  2  0  0  0  0
 14 13  1  0  0  0  0
 15 13  1  0  0  0  0
 17 16  1  0  0  0  0
 18 16  1  0  0  0  0
M  END
>  <SMILES>
c1ccccc1.C=C

>  <MoleculeName>
BenzeneEthene200

>  <Distance Scale>
2.0

>  <Energy Value>
0.01

$$$$
/home/S66X8/3034_42UracilCyclopentane200.xyz
 OpenBabel06262409173D

 27 27  0  0  0  0  0  0  0  0999 V2000
    0.1957   -0.8447    0.8238 N   0  0  0  0  0  0  0  0  0  0  0  0
    0.4504   -1.7968    1.0498 H   0  0  0  0  0  0  0  0  0  0  0  0
   -1.1790   -0.5737    0.7595 C   0  0  0  0  0  0  0  0  0  0  0  0
   -1.9936   -1.4563    0.9669 O   0  0  0  0  0  0  0  0  0  0  0  0
   -1.4767    0.8112    0.4376 C   0  0  0  0  0  0  0  0  0  0  0  0
   -2.5064    1.1157    0.3639 H   0  0  0  0  0  0  0  0  0  0  0  0
   -0.4681    1.6830    0.2349 C   0  0  0  0  0  0  0  0  0  0  0  0
   -0.6384    2.7216   -0.0062 H   0  0  0  0  0  0  0  0  0  0  0  0
    0.8456    1.3060    0.3268 N   0  0  0  0  0  0  0  0  0  0  0  0
    1.5897    1.9689    0.1860 H   0  0  0  0  0  0  0  0  0  0  0  0
    1.2543    0.0195    0.6362 C   0  0  0  0  0  0  0  0  0  0  0  0
    2.4223   -0.3017    0.7319 O   0  0  0  0  0  0  0  0  0  0  0  0
    1.1462   -0.9122    7.3008 C   0  0  0  0  0  0  0  0  0  0  0  0
    1.6000   -1.0043    6.3128 H   0  0  0  0  0  0  0  0  0  0  0  0
    1.6907   -1.5762    7.9700 H   0  0  0  0  0  0  0  0  0  0  0  0
    1.2005    0.5537    7.7337 C   0  0  0  0  0  0  0  0  0  0  0  0
    2.1588    1.0266    7.5230 H   0  0  0  0  0  0  0  0  0  0  0  0
    1.0124    0.6353    8.8070 H   0  0  0  0  0  0  0  0  0  0  0  0
    0.0331    1.1665    6.9630 C   0  0  0  0  0  0  0  0  0  0  0  0
    0.3074    1.2553    5.9095 H   0  0  0  0  0  0  0  0  0  0  0  0
   -0.2513    2.1577    7.3146 H   0  0  0  0  0  0  0  0  0  0  0  0
   -1.0838    0.1290    7.1340 C   0  0  0  0  0  0  0  0  0  0  0  0
   -1.8094    0.1526    6.3226 H   0  0  0  0  0  0  0  0  0  0  0  0
   -1.6279    0.3337    8.0562 H   0  0  0  0  0  0  0  0  0  0  0  0
   -0.3608   -1.2376    7.2376 C   0  0  0  0  0  0  0  0  0  0  0  0
   -0.6035   -1.8818    6.3943 H   0  0  0  0  0  0  0  0  0  0  0  0
   -0.6759   -1.7650    8.1367 H   0  0  0  0  0  0  0  0  0  0  0  0
  1  2  1  0  0  0  0
  3  1  1  0  0  0  0
  3  4  2  0  0  0  0
  5  3  1  0  0  0  0
  6  5  1  0  0  0  0
  7  9  1  0  0  0  0
  7  5  2  0  0  0  0
  8  7  1  0  0  0  0
  9 11  1  0  0  0  0
 10  9  1  0  0  0  0
 11 12  2  0  0  0  0
 11  1  1  0  0  0  0
 13 16  1  0  0  0  0
 13 15  1  0  0  0  0
 14 13  1  0  0  0  0
 16 18  1  0  0  0  0
 17 16  1  0  0  0  0
 19 22  1  0  0  0  0
 19 21  1  0  0  0  0
 19 16  1  0  0  0  0
 20 19  1  0  0  0  0
 22 25  1  0  0  0  0
 22 24  1  0  0  0  0
 23 22  1  0  0  0  0
 25 13  1  0  0  0  0
 25 27  1  0  0  0  0
 26 25  1  0  0  0  0
M  END
>  <SMILES>
[nH]1c(=O)cc[nH]c1=O.C1CCCC1

>  <MoleculeName>
UracilCyclopentane200

>  <Distance Scale>
2.0

>  <Energy Value>
-0.25

$$$$
/home/S66X8/3035_43UracilNeopentane090.xyz
 OpenBabel06262409173D

 29 28  0  0  0  0  0  0  0  0999 V2000
    0.6261   -0.8509    0.8059 N   0  0  0  0  0  0  0  0  0  0  0  0
    0.4092   -1.8115    1.0344 H   0  0  0  0  0  0  0  0  0  0  0  0
   -0.4325   -0.0873    0.2947 C   0  0  0  0  0  0  0  0  0  0  0  0
   -1.5308   -0.5884    0.1236 O   0  0  0  0  0  0  0  0  0  0  0  0
   -0.0669    1.2913    0.0196 C   0  0  0  0  0  0  0  0  0  0  0  0
   -0.8097    1.9518   -0.3928 H   0  0  0  0  0  0  0  0  0  0  0  0
    1.1835    1.7179    0.2905 C   0  0  0  0  0  0  0  0  0  0  0  0
    1.5019    2.7339    0.1098 H   0  0  0  0  0  0  0  0  0  0  0  0
    2.1341    0.8866    0.8191 N   0  0  0  0  0  0  0  0  0  0  0  0
    3.0553    1.2239    1.0434 H   0  0  0  0  0  0  0  0  0  0  0  0
    1.9028   -0.4432    1.1283 C   0  0  0  0  0  0  0  0  0  0  0  0
    2.7438   -1.1639    1.6286 O   0  0  0  0  0  0  0  0  0  0  0  0
   -0.5327   -0.0243    4.4770 C   0  0  0  0  0  0  0  0  0  0  0  0
   -1.8494    0.7170    4.6918 C   0  0  0  0  0  0  0  0  0  0  0  0
   -2.5565    0.0988    5.2467 H   0  0  0  0  0  0  0  0  0  0  0  0
   -1.6899    1.6371    5.2560 H   0  0  0  0  0  0  0  0  0  0  0  0
   -2.3071    0.9785    3.7367 H   0  0  0  0  0  0  0  0  0  0  0  0
    0.0828   -0.3778    5.8283 C   0  0  0  0  0  0  0  0  0  0  0  0
    1.0259   -0.9101    5.6975 H   0  0  0  0  0  0  0  0  0  0  0  0
    0.2798    0.5220    6.4131 H   0  0  0  0  0  0  0  0  0  0  0  0
   -0.5885   -1.0155    6.4050 H   0  0  0  0  0  0  0  0  0  0  0  0
    0.4325    0.8692    3.7012 C   0  0  0  0  0  0  0  0  0  0  0  0
    1.3810    0.3566    3.5308 H   0  0  0  0  0  0  0  0  0  0  0  0
    0.6377    1.7873    4.2546 H   0  0  0  0  0  0  0  0  0  0  0  0
    0.0101    1.1476    2.7337 H   0  0  0  0  0  0  0  0  0  0  0  0
   -0.7940   -1.3044    3.6866 C   0  0  0  0  0  0  0  0  0  0  0  0
   -1.2577   -1.0825    2.7240 H   0  0  0  0  0  0  0  0  0  0  0  0
    0.1386   -1.8428    3.5070 H   0  0  0  0  0  0  0  0  0  0  0  0
   -1.4645   -1.9662    4.2368 H   0  0  0  0  0  0  0  0  0  0  0  0
  1  2  1  0  0  0  0
  1 11  1  0  0  0  0
  3  1  1  0  0  0  0
  4  3  2  0  0  0  0
  5  7  2  0  0  0  0
  5  3  1  0  0  0  0
  6  5  1  0  0  0  0
  7  9  1  0  0  0  0
  8  7  1  0  0  0  0
  9 10  1  0  0  0  0
  9 11  1  0  0  0  0
 11 12  2  0  0  0  0
 13 14  1  0  0  0  0
 13 18  1  0  0  0  0
 14 15  1  0  0  0  0
 14 16  1  0  0  0  0
 17 14  1  0  0  0  0
 18 21  1  0  0  0  0
 18 20  1  0  0  0  0
 19 18  1  0  0  0  0
 22 24  1  0  0  0  0
 22 13  1  0  0  0  0
 23 22  1  0  0  0  0
 25 22  1  0  0  0  0
 26 29  1  0  0  0  0
 26 13  1  0  0  0  0
 27 26  1  0  0  0  0
 28 26  1  0  0  0  0
M  END
>  <SMILES>
[nH]1c(=O)cc[nH]c1=O.C(C)(C)(C)C

>  <MoleculeName>
UracilNeopentane090

>  <Distance Scale>
0.9

>  <Energy Value>
-2.87

$$$$
/home/S66X8/2947_32UracilEthyne090.xyz
 OpenBabel06262409173D

 16 15  0  0  0  0  0  0  0  0999 V2000
   -0.0555   -0.9480    0.0100 N   0  0  0  0  0  0  0  0  0  0  0  0
   -0.0573   -1.9577    0.0551 H   0  0  0  0  0  0  0  0  0  0  0  0
   -1.3140   -0.3351   -0.0646 C   0  0  0  0  0  0  0  0  0  0  0  0
   -2.3289   -1.0079   -0.1231 O   0  0  0  0  0  0  0  0  0  0  0  0
   -1.2484    1.1161   -0.0665 C   0  0  0  0  0  0  0  0  0  0  0  0
   -2.1643    1.6753   -0.1471 H   0  0  0  0  0  0  0  0  0  0  0  0
   -0.0531    1.7314    0.0342 C   0  0  0  0  0  0  0  0  0  0  0  0
    0.0481    2.8064    0.0434 H   0  0  0  0  0  0  0  0  0  0  0  0
    1.1159    1.0276    0.1352 N   0  0  0  0  0  0  0  0  0  0  0  0
    1.9967    1.4973    0.2616 H   0  0  0  0  0  0  0  0  0  0  0  0
    1.1753   -0.3538    0.1762 C   0  0  0  0  0  0  0  0  0  0  0  0
    2.2146   -0.9665    0.3352 O   0  0  0  0  0  0  0  0  0  0  0  0
    0.6922   -0.1745    2.9835 C   0  0  0  0  0  0  0  0  0  0  0  0
    1.6880   -0.5285    2.8693 H   0  0  0  0  0  0  0  0  0  0  0  0
   -0.4524    0.2120    3.0897 C   0  0  0  0  0  0  0  0  0  0  0  0
   -1.4573    0.5407    3.1901 H   0  0  0  0  0  0  0  0  0  0  0  0
  1  2  1  0  0  0  0
  1 11  1  0  0  0  0
  3  1  1  0  0  0  0
  4  3  2  0  0  0  0
  5  3  1  0  0  0  0
  5  7  2  0  0  0  0
  6  5  1  0  0  0  0
  7  8  1  0  0  0  0
  7  9  1  0  0  0  0
  9 11  1  0  0  0  0
  9 10  1  0  0  0  0
 11 12  2  0  0  0  0
 13 15  3  0  0  0  0
 14 13  1  0  0  0  0
 15 16  1  0  0  0  0
M  END
>  <SMILES>
[nH]1c(=O)cc[nH]c1=O.C#C

>  <MoleculeName>
UracilEthyne090

>  <Distance Scale>
0.9

>  <Energy Value>
-2.79

$$$$
/home/S66X8/3003_39BenzeneCyclopentane090.xyz
 OpenBabel06262409173D

 27 27  0  0  0  0  0  0  0  0999 V2000
    0.7655    0.8682    0.8210 C   0  0  0  0  0  0  0  0  0  0  0  0
    1.4375    1.6800    1.0651 H   0  0  0  0  0  0  0  0  0  0  0  0
    1.2377   -0.4428    0.7939 C   0  0  0  0  0  0  0  0  0  0  0  0
    2.2758   -0.6485    1.0177 H   0  0  0  0  0  0  0  0  0  0  0  0
    0.3722   -1.4885    0.4773 C   0  0  0  0  0  0  0  0  0  0  0  0
    0.7382   -2.5061    0.4571 H   0  0  0  0  0  0  0  0  0  0  0  0
   -0.9649   -1.2230    0.1869 C   0  0  0  0  0  0  0  0  0  0  0  0
   -1.6365   -2.0346   -0.0578 H   0  0  0  0  0  0  0  0  0  0  0  0
   -1.4371    0.0884    0.2133 C   0  0  0  0  0  0  0  0  0  0  0  0
   -2.4747    0.2943   -0.0115 H   0  0  0  0  0  0  0  0  0  0  0  0
   -0.5719    1.1340    0.5308 C   0  0  0  0  0  0  0  0  0  0  0  0
   -0.9377    2.1517    0.5511 H   0  0  0  0  0  0  0  0  0  0  0  0
   -0.7792   -0.7546    3.7122 C   0  0  0  0  0  0  0  0  0  0  0  0
   -0.8854   -0.5796    2.6399 H   0  0  0  0  0  0  0  0  0  0  0  0
   -1.4308   -1.5839    3.9853 H   0  0  0  0  0  0  0  0  0  0  0  0
    0.6904   -1.0117    4.0563 C   0  0  0  0  0  0  0  0  0  0  0  0
    1.1856   -1.6492    3.3257 H   0  0  0  0  0  0  0  0  0  0  0  0
    0.7536   -1.5119    5.0238 H   0  0  0  0  0  0  0  0  0  0  0  0
    1.3305    0.3937    4.1473 C   0  0  0  0  0  0  0  0  0  0  0  0
    1.9808    0.5864    3.2954 H   0  0  0  0  0  0  0  0  0  0  0  0
    1.9434    0.4829    5.0430 H   0  0  0  0  0  0  0  0  0  0  0  0
    0.1514    1.3929    4.1742 C   0  0  0  0  0  0  0  0  0  0  0  0
    0.0343    1.8519    3.1919 H   0  0  0  0  0  0  0  0  0  0  0  0
    0.2970    2.1944    4.8965 H   0  0  0  0  0  0  0  0  0  0  0  0
   -1.0823    0.5358    4.4698 C   0  0  0  0  0  0  0  0  0  0  0  0
   -2.0133    1.0116    4.1639 H   0  0  0  0  0  0  0  0  0  0  0  0
   -1.1477    0.3265    5.5403 H   0  0  0  0  0  0  0  0  0  0  0  0
  1  2  1  0  0  0  0
  3  1  1  0  0  0  0
  3  4  1  0  0  0  0
  5  3  2  0  0  0  0
  6  5  1  0  0  0  0
  7  9  2  0  0  0  0
  7  5  1  0  0  0  0
  8  7  1  0  0  0  0
  9 11  1  0  0  0  0
 10  9  1  0  0  0  0
 11 12  1  0  0  0  0
 11  1  2  0  0  0  0
 13 15  1  0  0  0  0
 13 16  1  0  0  0  0
 13 25  1  0  0  0  0
 14 13  1  0  0  0  0
 16 19  1  0  0  0  0
 16 18  1  0  0  0  0
 17 16  1  0  0  0  0
 19 22  1  0  0  0  0
 19 21  1  0  0  0  0
 20 19  1  0  0  0  0
 22 25  1  0  0  0  0
 22 24  1  0  0  0  0
 23 22  1  0  0  0  0
 25 27  1  0  0  0  0
 26 25  1  0  0  0  0
M  END
>  <SMILES>
c1ccccc1.C1CCCC1

>  <MoleculeName>
BenzeneCyclopentane090

>  <Distance Scale>
0.9

>  <Energy Value>
-2.16

$$$$
/home/S66X8/2773_10MeNH2MeNH2100.xyz
 OpenBabel06262409173D

 14 12  0  0  0  0  0  0  0  0999 V2000
   -0.6386    0.4709    0.0446 N   0  0  0  0  0  0  0  0  0  0  0  0
    0.1900   -0.1139   -0.0058 H   0  0  0  0  0  0  0  0  0  0  0  0
   -1.3005    0.0813   -0.6137 H   0  0  0  0  0  0  0  0  0  0  0  0
   -1.1987    0.3914    1.3919 C   0  0  0  0  0  0  0  0  0  0  0  0
   -2.0927    1.0092    1.4532 H   0  0  0  0  0  0  0  0  0  0  0  0
   -1.4627   -0.6158    1.7295 H   0  0  0  0  0  0  0  0  0  0  0  0
   -0.4803    0.7987    2.1011 H   0  0  0  0  0  0  0  0  0  0  0  0
    2.4306   -0.4604    0.2000 N   0  0  0  0  0  0  0  0  0  0  0  0
    2.7269   -0.1859   -0.7280 H   0  0  0  0  0  0  0  0  0  0  0  0
    3.0542   -1.2081    0.4752 H   0  0  0  0  0  0  0  0  0  0  0  0
    2.5908    0.6748    1.1136 C   0  0  0  0  0  0  0  0  0  0  0  0
    2.3206    0.3601    2.1193 H   0  0  0  0  0  0  0  0  0  0  0  0
    3.5983    1.0966    1.1506 H   0  0  0  0  0  0  0  0  0  0  0  0
    1.8983    1.4606    0.8210 H   0  0  0  0  0  0  0  0  0  0  0  0
  1  4  1  0  0  0  0
  2  1  1  0  0  0  0
  3  1  1  0  0  0  0
  4  5  1  0  0  0  0
  4  6  1  0  0  0  0
  4  7  1  0  0  0  0
  8 10  1  0  0  0  0
  8 11  1  0  0  0  0
  9  8  1  0  0  0  0
 11 13  1  0  0  0  0
 11 12  1  0  0  0  0
 14 11  1  0  0  0  0
M  END
>  <SMILES>
NC.NC

>  <MoleculeName>
MeNH2MeNH2100

>  <Distance Scale>
1.0

>  <Energy Value>
-4.15

$$$$
/home/S66X8/3092_50BenzeneEthyneCHpi095.xyz
 OpenBabel06262409173D

 16 15  0  0  0  0  0  0  0  0999 V2000
    0.8366    1.1149    0.2310 C   0  0  0  0  0  0  0  0  0  0  0  0
    1.4855    1.9797    0.2147 H   0  0  0  0  0  0  0  0  0  0  0  0
    1.3842   -0.1670    0.2601 C   0  0  0  0  0  0  0  0  0  0  0  0
    2.4577   -0.2963    0.2661 H   0  0  0  0  0  0  0  0  0  0  0  0
    0.5475   -1.2818    0.2869 C   0  0  0  0  0  0  0  0  0  0  0  0
    0.9719   -2.2760    0.3139 H   0  0  0  0  0  0  0  0  0  0  0  0
   -0.8367   -1.1150    0.2846 C   0  0  0  0  0  0  0  0  0  0  0  0
   -1.4856   -1.9796    0.3097 H   0  0  0  0  0  0  0  0  0  0  0  0
   -1.3842    0.1669    0.2556 C   0  0  0  0  0  0  0  0  0  0  0  0
   -2.4576    0.2965    0.2585 H   0  0  0  0  0  0  0  0  0  0  0  0
   -0.5475    1.2817    0.2290 C   0  0  0  0  0  0  0  0  0  0  0  0
   -0.9721    2.2760    0.2112 H   0  0  0  0  0  0  0  0  0  0  0  0
    0.0056    0.0708    3.5938 C   0  0  0  0  0  0  0  0  0  0  0  0
    0.0026    0.0532    2.5297 H   0  0  0  0  0  0  0  0  0  0  0  0
    0.0093    0.0904    4.8062 C   0  0  0  0  0  0  0  0  0  0  0  0
    0.0124    0.1075    5.8674 H   0  0  0  0  0  0  0  0  0  0  0  0
  1  3  1  0  0  0  0
  2  1  1  0  0  0  0
  3  4  1  0  0  0  0
  3  5  2  0  0  0  0
  5  6  1  0  0  0  0
  7  5  1  0  0  0  0
  7  8  1  0  0  0  0
  9 10  1  0  0  0  0
  9  7  2  0  0  0  0
 11  1  2  0  0  0  0
 11  9  1  0  0  0  0
 12 11  1  0  0  0  0
 13 15  3  0  0  0  0
 14 13  1  0  0  0  0
 15 16  1  0  0  0  0
M  END
>  <SMILES>
c1ccccc1.C#C

>  <MoleculeName>
BenzeneEthyneCHpi095

>  <Distance Scale>
0.95

>  <Energy Value>
-2.65

$$$$
/home/S66X8/2966_34PentanePentane105.xyz
 OpenBabel06262409173D

 34 32  0  0  0  0  0  0  0  0999 V2000
   -2.5333   -0.2949    0.7131 C   0  0  0  0  0  0  0  0  0  0  0  0
   -2.5636   -0.9771   -0.1364 H   0  0  0  0  0  0  0  0  0  0  0  0
   -2.5670   -0.8959    1.6217 H   0  0  0  0  0  0  0  0  0  0  0  0
   -3.4344    0.3160    0.6841 H   0  0  0  0  0  0  0  0  0  0  0  0
   -1.2719    0.5577    0.6744 C   0  0  0  0  0  0  0  0  0  0  0  0
   -1.2710    1.2566    1.5143 H   0  0  0  0  0  0  0  0  0  0  0  0
   -1.2666    1.1679   -0.2318 H   0  0  0  0  0  0  0  0  0  0  0  0
   -0.0001   -0.2784    0.7196 C   0  0  0  0  0  0  0  0  0  0  0  0
   -0.0002   -0.8872    1.6286 H   0  0  0  0  0  0  0  0  0  0  0  0
   -0.0004   -0.9807   -0.1194 H   0  0  0  0  0  0  0  0  0  0  0  0
    1.2719    0.5574    0.6741 C   0  0  0  0  0  0  0  0  0  0  0  0
    1.2710    1.2566    1.5137 H   0  0  0  0  0  0  0  0  0  0  0  0
    1.2666    1.1672   -0.2324 H   0  0  0  0  0  0  0  0  0  0  0  0
    2.5334   -0.2949    0.7133 C   0  0  0  0  0  0  0  0  0  0  0  0
    2.5639   -0.9778   -0.1358 H   0  0  0  0  0  0  0  0  0  0  0  0
    3.4343    0.3163    0.6836 H   0  0  0  0  0  0  0  0  0  0  0  0
    2.5676   -0.8952    1.6223 H   0  0  0  0  0  0  0  0  0  0  0  0
    2.5336    0.2917    4.6772 C   0  0  0  0  0  0  0  0  0  0  0  0
    2.5681    0.8915    3.7679 H   0  0  0  0  0  0  0  0  0  0  0  0
    2.5641    0.9749    5.5260 H   0  0  0  0  0  0  0  0  0  0  0  0
    3.4342   -0.3198    4.7074 H   0  0  0  0  0  0  0  0  0  0  0  0
    1.2717   -0.5602    4.7165 C   0  0  0  0  0  0  0  0  0  0  0  0
    1.2663   -1.1699    5.6230 H   0  0  0  0  0  0  0  0  0  0  0  0
    1.2706   -1.2596    3.8770 H   0  0  0  0  0  0  0  0  0  0  0  0
   -0.0000    0.2759    4.6709 C   0  0  0  0  0  0  0  0  0  0  0  0
   -0.0002    0.9782    5.5099 H   0  0  0  0  0  0  0  0  0  0  0  0
    0.0000    0.8847    3.7619 H   0  0  0  0  0  0  0  0  0  0  0  0
   -1.2718   -0.5603    4.7162 C   0  0  0  0  0  0  0  0  0  0  0  0
   -1.2664   -1.1704    5.6224 H   0  0  0  0  0  0  0  0  0  0  0  0
   -1.2707   -1.2593    3.8763 H   0  0  0  0  0  0  0  0  0  0  0  0
   -2.5335    0.2918    4.6772 C   0  0  0  0  0  0  0  0  0  0  0  0
   -2.5677    0.8923    3.7683 H   0  0  0  0  0  0  0  0  0  0  0  0
   -3.4343   -0.3195    4.7067 H   0  0  0  0  0  0  0  0  0  0  0  0
   -2.5641    0.9744    5.5265 H   0  0  0  0  0  0  0  0  0  0  0  0
  1  3  1  0  0  0  0
  2  1  1  0  0  0  0
  4  1  1  0  0  0  0
  5  1  1  0  0  0  0
  5  8  1  0  0  0  0
  5  6  1  0  0  0  0
  7  5  1  0  0  0  0
  8  9  1  0  0  0  0
 10  8  1  0  0  0  0
 11 14  1  0  0  0  0
 11  8  1  0  0  0  0
 11 12  1  0  0  0  0
 13 11  1  0  0  0  0
 14 17  1  0  0  0  0
 15 14  1  0  0  0  0
 16 14  1  0  0  0  0
 18 21  1  0  0  0  0
 18 22  1  0  0  0  0
 18 20  1  0  0  0  0
 19 18  1  0  0  0  0
 22 23  1  0  0  0  0
 24 22  1  0  0  0  0
 25 28  1  0  0  0  0
 25 22  1  0  0  0  0
 25 26  1  0  0  0  0
 27 25  1  0  0  0  0
 28 29  1  0  0  0  0
 30 28  1  0  0  0  0
 31 33  1  0  0  0  0
 31 28  1  0  0  0  0
 31 34  1  0  0  0  0
 32 31  1  0  0  0  0
M  END
>  <SMILES>
CCCCC.CCCCC

>  <MoleculeName>
PentanePentane105

>  <Distance Scale>
1.05

>  <Energy Value>
-3.61

$$$$
/home/S66X8/2849_19MeOHPyridine150.xyz
 OpenBabel06262409173D

 17 16  0  0  0  0  0  0  0  0999 V2000
   -0.6277    0.0875    0.0015 O   0  0  0  0  0  0  0  0  0  0  0  0
    0.3436    0.1223   -0.0006 H   0  0  0  0  0  0  0  0  0  0  0  0
   -0.9779   -1.2786    0.0012 C   0  0  0  0  0  0  0  0  0  0  0  0
   -2.0634   -1.3420    0.0050 H   0  0  0  0  0  0  0  0  0  0  0  0
   -0.6149   -1.8064   -0.8854 H   0  0  0  0  0  0  0  0  0  0  0  0
   -0.6086   -1.8082    0.8842 H   0  0  0  0  0  0  0  0  0  0  0  0
    3.2685   -0.0382   -0.0022 N   0  0  0  0  0  0  0  0  0  0  0  0
    3.9649   -0.0627   -1.1469 C   0  0  0  0  0  0  0  0  0  0  0  0
    3.3804   -0.0395   -2.0579 H   0  0  0  0  0  0  0  0  0  0  0  0
    5.3545   -0.1124   -1.1956 C   0  0  0  0  0  0  0  0  0  0  0  0
    5.8618   -0.1297   -2.1493 H   0  0  0  0  0  0  0  0  0  0  0  0
    6.0649   -0.1381    0.0001 C   0  0  0  0  0  0  0  0  0  0  0  0
    7.1452   -0.1759    0.0009 H   0  0  0  0  0  0  0  0  0  0  0  0
    5.3526   -0.1131    1.1946 C   0  0  0  0  0  0  0  0  0  0  0  0
    5.8584   -0.1309    2.1491 H   0  0  0  0  0  0  0  0  0  0  0  0
    3.9631   -0.0634    1.1436 C   0  0  0  0  0  0  0  0  0  0  0  0
    3.3771   -0.0407    2.0538 H   0  0  0  0  0  0  0  0  0  0  0  0
  2  1  1  0  0  0  0
  3  1  1  0  0  0  0
  3  4  1  0  0  0  0
  3  6  1  0  0  0  0
  5  3  1  0  0  0  0
  7 16  1  0  0  0  0
  8  7  2  0  0  0  0
  9  8  1  0  0  0  0
 10  8  1  0  0  0  0
 10 12  2  0  0  0  0
 11 10  1  0  0  0  0
 12 13  1  0  0  0  0
 12 14  1  0  0  0  0
 14 15  1  0  0  0  0
 16 14  2  0  0  0  0
 16 17  1  0  0  0  0
M  END
>  <SMILES>
OC.n1ccccc1

>  <MoleculeName>
MeOHPyridine150

>  <Distance Scale>
1.5

>  <Energy Value>
-3.38

$$$$
/home/S66X8/3158_58PyridinePyridineCHN105.xyz
 OpenBabel06262409173D

 22 22  0  0  0  0  0  0  0  0999 V2000
   -0.9412    0.7900    0.0117 N   0  0  0  0  0  0  0  0  0  0  0  0
   -0.9228   -0.5524    0.0354 C   0  0  0  0  0  0  0  0  0  0  0  0
    0.0572   -1.0156    0.0514 H   0  0  0  0  0  0  0  0  0  0  0  0
   -2.0765   -1.3330    0.0393 C   0  0  0  0  0  0  0  0  0  0  0  0
   -1.9965   -2.4106    0.0589 H   0  0  0  0  0  0  0  0  0  0  0  0
   -3.3163   -0.7033    0.0176 C   0  0  0  0  0  0  0  0  0  0  0  0
   -4.2316   -1.2791    0.0198 H   0  0  0  0  0  0  0  0  0  0  0  0
   -3.3489    0.6870   -0.0071 C   0  0  0  0  0  0  0  0  0  0  0  0
   -4.2854    1.2261   -0.0247 H   0  0  0  0  0  0  0  0  0  0  0  0
   -2.1431    1.3826   -0.0089 C   0  0  0  0  0  0  0  0  0  0  0  0
   -2.1381    2.4657   -0.0278 H   0  0  0  0  0  0  0  0  0  0  0  0
    2.7162   -0.9452    0.0423 N   0  0  0  0  0  0  0  0  0  0  0  0
    3.9180   -1.5383    0.0444 C   0  0  0  0  0  0  0  0  0  0  0  0
    3.9128   -2.6213    0.0662 H   0  0  0  0  0  0  0  0  0  0  0  0
    5.1240   -0.8434    0.0204 C   0  0  0  0  0  0  0  0  0  0  0  0
    6.0604   -1.3829    0.0234 H   0  0  0  0  0  0  0  0  0  0  0  0
    5.0916    0.5469   -0.0074 C   0  0  0  0  0  0  0  0  0  0  0  0
    6.0070    1.1222   -0.0266 H   0  0  0  0  0  0  0  0  0  0  0  0
    3.8520    1.1772   -0.0099 C   0  0  0  0  0  0  0  0  0  0  0  0
    3.7722    2.2548   -0.0310 H   0  0  0  0  0  0  0  0  0  0  0  0
    2.6980    0.3972    0.0153 C   0  0  0  0  0  0  0  0  0  0  0  0
    1.7181    0.8609    0.0137 H   0  0  0  0  0  0  0  0  0  0  0  0
  1  2  1  0  0  0  0
  2  4  2  0  0  0  0
  2  3  1  0  0  0  0
  4  5  1  0  0  0  0
  6  7  1  0  0  0  0
  6  4  1  0  0  0  0
  8  6  2  0  0  0  0
  9  8  1  0  0  0  0
 10  8  1  0  0  0  0
 10  1  2  0  0  0  0
 11 10  1  0  0  0  0
 12 13  1  0  0  0  0
 13 14  1  0  0  0  0
 15 16  1  0  0  0  0
 15 13  2  0  0  0  0
 17 15  1  0  0  0  0
 18 17  1  0  0  0  0
 19 17  2  0  0  0  0
 19 21  1  0  0  0  0
 20 19  1  0  0  0  0
 21 12  2  0  0  0  0
 22 21  1  0  0  0  0
M  END
>  <SMILES>
n1ccccc1.n1ccccc1

>  <MoleculeName>
PyridinePyridineCHN105

>  <Distance Scale>
1.05

>  <Energy Value>
-3.89

$$$$
/home/S66X8/2703_01WaterWater110.xyz
 OpenBabel06262409173D

  6  4  0  0  0  0  0  0  0  0999 V2000
   -0.7022   -0.0561    0.0099 O   0  0  0  0  0  0  0  0  0  0  0  0
   -1.0222    0.8468   -0.0115 H   0  0  0  0  0  0  0  0  0  0  0  0
    0.2575    0.0421    0.0052 H   0  0  0  0  0  0  0  0  0  0  0  0
    2.4701    0.0248    0.0000 O   0  0  0  0  0  0  0  0  0  0  0  0
    2.8467   -0.4136    0.7662 H   0  0  0  0  0  0  0  0  0  0  0  0
    2.8424   -0.4515   -0.7454 H   0  0  0  0  0  0  0  0  0  0  0  0
  2  1  1  0  0  0  0
  3  1  1  0  0  0  0
  4  5  1  0  0  0  0
  6  4  1  0  0  0  0
M  END
>  <SMILES>
O.O

>  <MoleculeName>
WaterWater110

>  <Distance Scale>
1.1

>  <Energy Value>
-4.45

$$$$
/home/S66X8/3087_49BenzenePyridineTS110.xyz
 OpenBabel06262409173D

 23 23  0  0  0  0  0  0  0  0999 V2000
    0.8451    1.0579    0.6995 C   0  0  0  0  0  0  0  0  0  0  0  0
    1.5064    1.9032    0.8334 H   0  0  0  0  0  0  0  0  0  0  0  0
    1.3755   -0.2175    0.5112 C   0  0  0  0  0  0  0  0  0  0  0  0
    2.4472   -0.3615    0.5029 H   0  0  0  0  0  0  0  0  0  0  0  0
    0.5241   -1.3070    0.3332 C   0  0  0  0  0  0  0  0  0  0  0  0
    0.9357   -2.2960    0.1849 H   0  0  0  0  0  0  0  0  0  0  0  0
   -0.8577   -1.1215    0.3464 C   0  0  0  0  0  0  0  0  0  0  0  0
   -1.5184   -1.9665    0.2084 H   0  0  0  0  0  0  0  0  0  0  0  0
   -1.3880    0.1536    0.5376 C   0  0  0  0  0  0  0  0  0  0  0  0
   -2.4597    0.2974    0.5500 H   0  0  0  0  0  0  0  0  0  0  0  0
   -0.5366    1.2434    0.7127 C   0  0  0  0  0  0  0  0  0  0  0  0
   -0.9489    2.2328    0.8574 H   0  0  0  0  0  0  0  0  0  0  0  0
    0.0196    0.2956    7.0520 N   0  0  0  0  0  0  0  0  0  0  0  0
    0.1743    1.2336    6.1071 C   0  0  0  0  0  0  0  0  0  0  0  0
    0.3161    2.2461    6.4650 H   0  0  0  0  0  0  0  0  0  0  0  0
    0.1601    0.9663    4.7406 C   0  0  0  0  0  0  0  0  0  0  0  0
    0.2903    1.7673    4.0268 H   0  0  0  0  0  0  0  0  0  0  0  0
   -0.0242   -0.3453    4.3153 C   0  0  0  0  0  0  0  0  0  0  0  0
   -0.0408   -0.5884    3.2620 H   0  0  0  0  0  0  0  0  0  0  0  0
   -0.1861   -1.3304    5.2842 C   0  0  0  0  0  0  0  0  0  0  0  0
   -0.3326   -2.3656    5.0094 H   0  0  0  0  0  0  0  0  0  0  0  0
   -0.1569   -0.9630    6.6273 C   0  0  0  0  0  0  0  0  0  0  0  0
   -0.2805   -1.7105    7.4014 H   0  0  0  0  0  0  0  0  0  0  0  0
  1 11  1  0  0  0  0
  1  2  1  0  0  0  0
  3  1  2  0  0  0  0
  4  3  1  0  0  0  0
  5  7  2  0  0  0  0
  5  3  1  0  0  0  0
  6  5  1  0  0  0  0
  7  9  1  0  0  0  0
  8  7  1  0  0  0  0
  9 10  1  0  0  0  0
  9 11  2  0  0  0  0
 11 12  1  0  0  0  0
 14 15  1  0  0  0  0
 14 13  2  0  0  0  0
 16 14  1  0  0  0  0
 17 16  1  0  0  0  0
 18 16  2  0  0  0  0
 18 20  1  0  0  0  0
 19 18  1  0  0  0  0
 20 22  2  0  0  0  0
 21 20  1  0  0  0  0
 22 13  1  0  0  0  0
 22 23  1  0  0  0  0
M  END
>  <SMILES>
c1ccccc1.n1ccccc1

>  <MoleculeName>
BenzenePyridineTS110

>  <Distance Scale>
1.1

>  <Energy Value>
-3.02

$$$$
/home/S66X8/2944_31UracilEthene125.xyz
 OpenBabel06262409173D

 18 17  0  0  0  0  0  0  0  0999 V2000
   -0.0509   -0.9801    0.0340 N   0  0  0  0  0  0  0  0  0  0  0  0
   -0.0532   -1.9907    0.0498 H   0  0  0  0  0  0  0  0  0  0  0  0
   -1.3088   -0.3619    0.0040 C   0  0  0  0  0  0  0  0  0  0  0  0
   -2.3272   -1.0326   -0.0058 O   0  0  0  0  0  0  0  0  0  0  0  0
   -1.2368    1.0880   -0.0122 C   0  0  0  0  0  0  0  0  0  0  0  0
   -2.1527    1.6515   -0.0548 H   0  0  0  0  0  0  0  0  0  0  0  0
   -0.0352    1.6978    0.0337 C   0  0  0  0  0  0  0  0  0  0  0  0
    0.0704    2.7725    0.0319 H   0  0  0  0  0  0  0  0  0  0  0  0
    1.1345    0.9903    0.0918 N   0  0  0  0  0  0  0  0  0  0  0  0
    2.0237    1.4568    0.1557 H   0  0  0  0  0  0  0  0  0  0  0  0
    1.1932   -0.3918    0.1158 C   0  0  0  0  0  0  0  0  0  0  0  0
    2.2364   -1.0112    0.1942 O   0  0  0  0  0  0  0  0  0  0  0  0
    0.7465    0.0512    4.1647 C   0  0  0  0  0  0  0  0  0  0  0  0
    1.2637   -0.8198    3.7875 H   0  0  0  0  0  0  0  0  0  0  0  0
    1.3522    0.8382    4.5921 H   0  0  0  0  0  0  0  0  0  0  0  0
   -0.5822    0.1518    4.1155 C   0  0  0  0  0  0  0  0  0  0  0  0
   -1.1942   -0.6357    3.6986 H   0  0  0  0  0  0  0  0  0  0  0  0
   -1.0941    1.0229    4.4995 H   0  0  0  0  0  0  0  0  0  0  0  0
  1  2  1  0  0  0  0
  1 11  1  0  0  0  0
  3  1  1  0  0  0  0
  4  3  2  0  0  0  0
  5  3  1  0  0  0  0
  5  7  2  0  0  0  0
  6  5  1  0  0  0  0
  7  9  1  0  0  0  0
  8  7  1  0  0  0  0
  9 11  1  0  0  0  0
  9 10  1  0  0  0  0
 11 12  2  0  0  0  0
 13 15  1  0  0  0  0
 14 13  1  0  0  0  0
 16 13  2  0  0  0  0
 16 18  1  0  0  0  0
 17 16  1  0  0  0  0
M  END
>  <SMILES>
[nH]1c(=O)cc[nH]c1=O.C=C

>  <MoleculeName>
UracilEthene125

>  <Distance Scale>
1.25

>  <Energy Value>
-1.99

$$$$
/home/S66X8/2711_02WaterMeOH110.xyz
 OpenBabel06262409173D

  9  7  0  0  0  0  0  0  0  0999 V2000
   -0.5253   -0.0510   -0.3145 O   0  0  0  0  0  0  0  0  0  0  0  0
   -0.9420    0.7479    0.0113 H   0  0  0  0  0  0  0  0  0  0  0  0
    0.4037    0.0598   -0.0736 H   0  0  0  0  0  0  0  0  0  0  0  0
    2.5561    0.0437    0.0901 O   0  0  0  0  0  0  0  0  0  0  0  0
    2.9241   -0.5284    0.7676 H   0  0  0  0  0  0  0  0  0  0  0  0
    3.0211   -0.4279   -1.1721 C   0  0  0  0  0  0  0  0  0  0  0  0
    2.5903    0.2232   -1.9252 H   0  0  0  0  0  0  0  0  0  0  0  0
    4.1071   -0.3771   -1.2464 H   0  0  0  0  0  0  0  0  0  0  0  0
    2.6928   -1.4478   -1.3712 H   0  0  0  0  0  0  0  0  0  0  0  0
  1  3  1  0  0  0  0
  1  2  1  0  0  0  0
  4  5  1  0  0  0  0
  6  4  1  0  0  0  0
  7  6  1  0  0  0  0
  8  6  1  0  0  0  0
  9  6  1  0  0  0  0
M  END
>  <SMILES>
O.OC

>  <MoleculeName>
WaterMeOH110

>  <Distance Scale>
1.1

>  <Energy Value>
-5.08

$$$$
/home/S66X8/2967_34PentanePentane110.xyz
 OpenBabel06262409173D

 34 32  0  0  0  0  0  0  0  0999 V2000
   -2.5333   -0.2949    0.7131 C   0  0  0  0  0  0  0  0  0  0  0  0
   -2.5636   -0.9771   -0.1364 H   0  0  0  0  0  0  0  0  0  0  0  0
   -2.5670   -0.8959    1.6217 H   0  0  0  0  0  0  0  0  0  0  0  0
   -3.4344    0.3160    0.6841 H   0  0  0  0  0  0  0  0  0  0  0  0
   -1.2719    0.5577    0.6744 C   0  0  0  0  0  0  0  0  0  0  0  0
   -1.2710    1.2566    1.5143 H   0  0  0  0  0  0  0  0  0  0  0  0
   -1.2666    1.1679   -0.2318 H   0  0  0  0  0  0  0  0  0  0  0  0
   -0.0001   -0.2784    0.7196 C   0  0  0  0  0  0  0  0  0  0  0  0
   -0.0002   -0.8872    1.6286 H   0  0  0  0  0  0  0  0  0  0  0  0
   -0.0004   -0.9807   -0.1194 H   0  0  0  0  0  0  0  0  0  0  0  0
    1.2719    0.5574    0.6741 C   0  0  0  0  0  0  0  0  0  0  0  0
    1.2710    1.2566    1.5137 H   0  0  0  0  0  0  0  0  0  0  0  0
    1.2666    1.1672   -0.2324 H   0  0  0  0  0  0  0  0  0  0  0  0
    2.5334   -0.2949    0.7133 C   0  0  0  0  0  0  0  0  0  0  0  0
    2.5639   -0.9778   -0.1358 H   0  0  0  0  0  0  0  0  0  0  0  0
    3.4343    0.3163    0.6836 H   0  0  0  0  0  0  0  0  0  0  0  0
    2.5676   -0.8952    1.6223 H   0  0  0  0  0  0  0  0  0  0  0  0
    2.5336    0.2888    4.8198 C   0  0  0  0  0  0  0  0  0  0  0  0
    2.5681    0.8886    3.9105 H   0  0  0  0  0  0  0  0  0  0  0  0
    2.5641    0.9720    5.6686 H   0  0  0  0  0  0  0  0  0  0  0  0
    3.4342   -0.3227    4.8500 H   0  0  0  0  0  0  0  0  0  0  0  0
    1.2717   -0.5631    4.8591 C   0  0  0  0  0  0  0  0  0  0  0  0
    1.2663   -1.1728    5.7656 H   0  0  0  0  0  0  0  0  0  0  0  0
    1.2706   -1.2625    4.0196 H   0  0  0  0  0  0  0  0  0  0  0  0
   -0.0000    0.2730    4.8135 C   0  0  0  0  0  0  0  0  0  0  0  0
   -0.0002    0.9753    5.6525 H   0  0  0  0  0  0  0  0  0  0  0  0
    0.0000    0.8818    3.9044 H   0  0  0  0  0  0  0  0  0  0  0  0
   -1.2718   -0.5632    4.8588 C   0  0  0  0  0  0  0  0  0  0  0  0
   -1.2664   -1.1733    5.7650 H   0  0  0  0  0  0  0  0  0  0  0  0
   -1.2707   -1.2622    4.0189 H   0  0  0  0  0  0  0  0  0  0  0  0
   -2.5335    0.2889    4.8198 C   0  0  0  0  0  0  0  0  0  0  0  0
   -2.5677    0.8894    3.9109 H   0  0  0  0  0  0  0  0  0  0  0  0
   -3.4343   -0.3224    4.8493 H   0  0  0  0  0  0  0  0  0  0  0  0
   -2.5641    0.9715    5.6691 H   0  0  0  0  0  0  0  0  0  0  0  0
  1  3  1  0  0  0  0
  2  1  1  0  0  0  0
  4  1  1  0  0  0  0
  5  1  1  0  0  0  0
  5  8  1  0  0  0  0
  5  6  1  0  0  0  0
  7  5  1  0  0  0  0
  8  9  1  0  0  0  0
 10  8  1  0  0  0  0
 11 14  1  0  0  0  0
 11  8  1  0  0  0  0
 11 12  1  0  0  0  0
 13 11  1  0  0  0  0
 14 17  1  0  0  0  0
 15 14  1  0  0  0  0
 16 14  1  0  0  0  0
 18 21  1  0  0  0  0
 18 22  1  0  0  0  0
 18 20  1  0  0  0  0
 19 18  1  0  0  0  0
 22 23  1  0  0  0  0
 24 22  1  0  0  0  0
 25 28  1  0  0  0  0
 25 22  1  0  0  0  0
 25 26  1  0  0  0  0
 27 25  1  0  0  0  0
 28 29  1  0  0  0  0
 30 28  1  0  0  0  0
 31 33  1  0  0  0  0
 31 28  1  0  0  0  0
 31 34  1  0  0  0  0
 32 31  1  0  0  0  0
M  END
>  <SMILES>
CCCCC.CCCCC

>  <MoleculeName>
PentanePentane110

>  <Distance Scale>
1.1

>  <Energy Value>
-3.3

$$$$
/home/S66X8/2794_12MeNH2Water200.xyz
 OpenBabel06262409173D

 10  8  0  0  0  0  0  0  0  0999 V2000
   -0.5335   -0.2796    0.1070 N   0  0  0  0  0  0  0  0  0  0  0  0
   -0.6292   -1.2484    0.3828 H   0  0  0  0  0  0  0  0  0  0  0  0
   -1.1226   -0.1662   -0.7078 H   0  0  0  0  0  0  0  0  0  0  0  0
   -1.0169    0.5885    1.1874 C   0  0  0  0  0  0  0  0  0  0  0  0
   -0.9128    1.6256    0.8795 H   0  0  0  0  0  0  0  0  0  0  0  0
   -2.0547    0.4151    1.4785 H   0  0  0  0  0  0  0  0  0  0  0  0
   -0.3850    0.4488    2.0606 H   0  0  0  0  0  0  0  0  0  0  0  0
    3.9739    1.6456    0.1414 O   0  0  0  0  0  0  0  0  0  0  0  0
    3.1564    1.1493   -0.0318 H   0  0  0  0  0  0  0  0  0  0  0  0
    4.5558    1.3871   -0.5744 H   0  0  0  0  0  0  0  0  0  0  0  0
  1  2  1  0  0  0  0
  1  4  1  0  0  0  0
  3  1  1  0  0  0  0
  4  6  1  0  0  0  0
  4  7  1  0  0  0  0
  5  4  1  0  0  0  0
  9  8  1  0  0  0  0
 10  8  1  0  0  0  0
M  END
>  <SMILES>
NC.O

>  <MoleculeName>
MeNH2Water200

>  <Distance Scale>
2.0

>  <Energy Value>
-1.2

$$$$
/home/S66X8/2749_07MeOHPeptide100.xyz
 OpenBabel06262409173D

 18 16  0  0  0  0  0  0  0  0999 V2000
   -0.2088   -0.2169   -1.0324 O   0  0  0  0  0  0  0  0  0  0  0  0
    0.7111   -0.3869   -0.7740 H   0  0  0  0  0  0  0  0  0  0  0  0
   -1.0222   -0.7412   -0.0055 C   0  0  0  0  0  0  0  0  0  0  0  0
   -2.0575   -0.5387   -0.2686 H   0  0  0  0  0  0  0  0  0  0  0  0
   -0.9077   -1.8218    0.1085 H   0  0  0  0  0  0  0  0  0  0  0  0
   -0.8246   -0.2755    0.9646 H   0  0  0  0  0  0  0  0  0  0  0  0
    1.9978    1.9034    0.4407 C   0  0  0  0  0  0  0  0  0  0  0  0
    2.5042    2.8649    0.4058 H   0  0  0  0  0  0  0  0  0  0  0  0
    1.5873    1.7573    1.4386 H   0  0  0  0  0  0  0  0  0  0  0  0
    1.1682    1.8939   -0.2608 H   0  0  0  0  0  0  0  0  0  0  0  0
    2.9135    0.7485    0.1248 C   0  0  0  0  0  0  0  0  0  0  0  0
    2.4893   -0.3714   -0.1603 O   0  0  0  0  0  0  0  0  0  0  0  0
    4.2396    1.0102    0.1840 N   0  0  0  0  0  0  0  0  0  0  0  0
    4.5376    1.9206    0.4817 H   0  0  0  0  0  0  0  0  0  0  0  0
    5.2220   -0.0299   -0.0388 C   0  0  0  0  0  0  0  0  0  0  0  0
    4.8654   -0.6808   -0.8309 H   0  0  0  0  0  0  0  0  0  0  0  0
    6.1624    0.4236   -0.3373 H   0  0  0  0  0  0  0  0  0  0  0  0
    5.3815   -0.6344    0.8533 H   0  0  0  0  0  0  0  0  0  0  0  0
  1  2  1  0  0  0  0
  1  3  1  0  0  0  0
  3  5  1  0  0  0  0
  3  6  1  0  0  0  0
  4  3  1  0  0  0  0
  7  9  1  0  0  0  0
  8  7  1  0  0  0  0
 10  7  1  0  0  0  0
 11 13  1  0  0  0  0
 11  7  1  0  0  0  0
 12 11  2  0  0  0  0
 13 14  1  0  0  0  0
 15 13  1  0  0  0  0
 15 18  1  0  0  0  0
 16 15  1  0  0  0  0
 17 15  1  0  0  0  0
M  END
>  <SMILES>
OC.CC(=O)NC

>  <MoleculeName>
MeOHPeptide100

>  <Distance Scale>
1.0

>  <Energy Value>
-8.22

$$$$
/home/S66X8/3108_52BenzeneAcOHOHpi095.xyz
 OpenBabel06262409173D

 20 19  0  0  0  0  0  0  0  0999 V2000
    0.9641    0.8751    0.3780 C   0  0  0  0  0  0  0  0  0  0  0  0
    1.6598    1.6999    0.4460 H   0  0  0  0  0  0  0  0  0  0  0  0
    1.4311   -0.4131    0.1190 C   0  0  0  0  0  0  0  0  0  0  0  0
    2.4895   -0.5872   -0.0170 H   0  0  0  0  0  0  0  0  0  0  0  0
    0.5341   -1.4776    0.0424 C   0  0  0  0  0  0  0  0  0  0  0  0
    0.8970   -2.4774   -0.1520 H   0  0  0  0  0  0  0  0  0  0  0  0
   -0.8303   -1.2536    0.2209 C   0  0  0  0  0  0  0  0  0  0  0  0
   -1.5258   -2.0796    0.1641 H   0  0  0  0  0  0  0  0  0  0  0  0
   -1.2976    0.0344    0.4802 C   0  0  0  0  0  0  0  0  0  0  0  0
   -2.3544    0.2080    0.6286 H   0  0  0  0  0  0  0  0  0  0  0  0
   -0.4004    1.0998    0.5616 C   0  0  0  0  0  0  0  0  0  0  0  0
   -0.7605    2.0938    0.7848 H   0  0  0  0  0  0  0  0  0  0  0  0
   -0.1282    0.5511    4.2475 C   0  0  0  0  0  0  0  0  0  0  0  0
   -0.5964    1.6006    3.8682 O   0  0  0  0  0  0  0  0  0  0  0  0
    0.2750   -0.4264    3.4082 O   0  0  0  0  0  0  0  0  0  0  0  0
    0.1063   -0.1005    2.5068 H   0  0  0  0  0  0  0  0  0  0  0  0
    0.0818    0.1542    5.6789 C   0  0  0  0  0  0  0  0  0  0  0  0
   -0.2282    0.9635    6.3289 H   0  0  0  0  0  0  0  0  0  0  0  0
   -0.4943   -0.7425    5.8958 H   0  0  0  0  0  0  0  0  0  0  0  0
    1.1303   -0.0820    5.8439 H   0  0  0  0  0  0  0  0  0  0  0  0
  1  2  1  0  0  0  0
  1 11  1  0  0  0  0
  3  1  2  0  0  0  0
  4  3  1  0  0  0  0
  5  3  1  0  0  0  0
  5  7  2  0  0  0  0
  6  5  1  0  0  0  0
  7  9  1  0  0  0  0
  8  7  1  0  0  0  0
  9 11  2  0  0  0  0
  9 10  1  0  0  0  0
 11 12  1  0  0  0  0
 13 17  1  0  0  0  0
 14 13  2  0  0  0  0
 15 13  1  0  0  0  0
 16 15  1  0  0  0  0
 17 20  1  0  0  0  0
 17 19  1  0  0  0  0
 17 18  1  0  0  0  0
M  END
>  <SMILES>
c1ccccc1.C(=O)(O)C

>  <MoleculeName>
BenzeneAcOHOHpi095

>  <Distance Scale>
0.95

>  <Energy Value>
-4.58

$$$$
/home/S66X8/3013_40BenzeneNeopentane100.xyz
 OpenBabel06262409173D

 29 28  0  0  0  0  0  0  0  0999 V2000
    0.3120    0.5610    0.4967 C   0  0  0  0  0  0  0  0  0  0  0  0
    0.7421    1.5534    0.4816 H   0  0  0  0  0  0  0  0  0  0  0  0
    1.1422   -0.5581    0.5361 C   0  0  0  0  0  0  0  0  0  0  0  0
    2.2165   -0.4343    0.5524 H   0  0  0  0  0  0  0  0  0  0  0  0
    0.5878   -1.8367    0.5541 C   0  0  0  0  0  0  0  0  0  0  0  0
    1.2319   -2.7048    0.5852 H   0  0  0  0  0  0  0  0  0  0  0  0
   -0.7967   -1.9964    0.5330 C   0  0  0  0  0  0  0  0  0  0  0  0
   -1.2268   -2.9884    0.5486 H   0  0  0  0  0  0  0  0  0  0  0  0
   -1.6269   -0.8775    0.4942 C   0  0  0  0  0  0  0  0  0  0  0  0
   -2.7011   -1.0013    0.4798 H   0  0  0  0  0  0  0  0  0  0  0  0
   -1.0727    0.4012    0.4760 C   0  0  0  0  0  0  0  0  0  0  0  0
   -1.7170    1.2694    0.4459 H   0  0  0  0  0  0  0  0  0  0  0  0
    0.1711    0.5066    4.8189 C   0  0  0  0  0  0  0  0  0  0  0  0
    1.6174    0.6854    4.3640 C   0  0  0  0  0  0  0  0  0  0  0  0
    2.0332    1.6187    4.7474 H   0  0  0  0  0  0  0  0  0  0  0  0
    2.2408   -0.1352    4.7228 H   0  0  0  0  0  0  0  0  0  0  0  0
    1.6780    0.7048    3.2750 H   0  0  0  0  0  0  0  0  0  0  0  0
    0.1167    0.4753    6.3438 C   0  0  0  0  0  0  0  0  0  0  0  0
   -0.9091    0.3478    6.6929 H   0  0  0  0  0  0  0  0  0  0  0  0
    0.7121   -0.3504    6.7363 H   0  0  0  0  0  0  0  0  0  0  0  0
    0.5050    1.4032    6.7667 H   0  0  0  0  0  0  0  0  0  0  0  0
   -0.3783   -0.8029    4.2586 C   0  0  0  0  0  0  0  0  0  0  0  0
   -1.4131   -0.9531    4.5713 H   0  0  0  0  0  0  0  0  0  0  0  0
    0.2082   -1.6518    4.6144 H   0  0  0  0  0  0  0  0  0  0  0  0
   -0.3495   -0.8033    3.1683 H   0  0  0  0  0  0  0  0  0  0  0  0
   -0.6703    1.6712    4.3027 C   0  0  0  0  0  0  0  0  0  0  0  0
   -0.6487    1.7072    3.2127 H   0  0  0  0  0  0  0  0  0  0  0  0
   -1.7101    1.5674    4.6172 H   0  0  0  0  0  0  0  0  0  0  0  0
   -0.2946    2.6219    4.6848 H   0  0  0  0  0  0  0  0  0  0  0  0
  1  3  1  0  0  0  0
  2  1  1  0  0  0  0
  3  4  1  0  0  0  0
  3  5  2  0  0  0  0
  5  6  1  0  0  0  0
  7  8  1  0  0  0  0
  7  5  1  0  0  0  0
  9  7  2  0  0  0  0
 10  9  1  0  0  0  0
 11  9  1  0  0  0  0
 11  1  2  0  0  0  0
 12 11  1  0  0  0  0
 13 18  1  0  0  0  0
 14 16  1  0  0  0  0
 14 15  1  0  0  0  0
 14 13  1  0  0  0  0
 17 14  1  0  0  0  0
 18 19  1  0  0  0  0
 18 20  1  0  0  0  0
 18 21  1  0  0  0  0
 22 23  1  0  0  0  0
 22 24  1  0  0  0  0
 22 13  1  0  0  0  0
 25 22  1  0  0  0  0
 26 28  1  0  0  0  0
 26 29  1  0  0  0  0
 26 13  1  0  0  0  0
 27 26  1  0  0  0  0
M  END
>  <SMILES>
c1ccccc1.C(C)(C)(C)C

>  <MoleculeName>
BenzeneNeopentane100

>  <Distance Scale>
1.0

>  <Energy Value>
-2.89

$$$$
/home/S66X8/2701_01WaterWater100.xyz
 OpenBabel06262409173D

  6  4  0  0  0  0  0  0  0  0999 V2000
   -0.7022   -0.0561    0.0099 O   0  0  0  0  0  0  0  0  0  0  0  0
   -1.0222    0.8468   -0.0115 H   0  0  0  0  0  0  0  0  0  0  0  0
    0.2575    0.0421    0.0052 H   0  0  0  0  0  0  0  0  0  0  0  0
    2.2689    0.0263    0.0005 O   0  0  0  0  0  0  0  0  0  0  0  0
    2.6455   -0.4120    0.7666 H   0  0  0  0  0  0  0  0  0  0  0  0
    2.6411   -0.4499   -0.7449 H   0  0  0  0  0  0  0  0  0  0  0  0
  2  1  1  0  0  0  0
  3  1  1  0  0  0  0
  4  5  1  0  0  0  0
  6  4  1  0  0  0  0
M  END
>  <SMILES>
O.O

>  <MoleculeName>
WaterWater100

>  <Distance Scale>
1.0

>  <Energy Value>
-4.89

$$$$
/home/S66X8/2978_35NeopentanePentane200.xyz
 OpenBabel06262409173D

 34 32  0  0  0  0  0  0  0  0999 V2000
   -2.5304   -0.4176    0.6813 C   0  0  0  0  0  0  0  0  0  0  0  0
   -2.5599   -0.9828   -0.2502 H   0  0  0  0  0  0  0  0  0  0  0  0
   -2.5540   -1.1339    1.5027 H   0  0  0  0  0  0  0  0  0  0  0  0
   -3.4362    0.1841    0.7368 H   0  0  0  0  0  0  0  0  0  0  0  0
   -1.2762    0.4436    0.7500 C   0  0  0  0  0  0  0  0  0  0  0  0
   -1.2781    1.0252    1.6751 H   0  0  0  0  0  0  0  0  0  0  0  0
   -1.2803    1.1686   -0.0672 H   0  0  0  0  0  0  0  0  0  0  0  0
    0.0022   -0.3807    0.6790 C   0  0  0  0  0  0  0  0  0  0  0  0
    0.0078   -1.1114    1.4938 H   0  0  0  0  0  0  0  0  0  0  0  0
    0.0062   -0.9605   -0.2488 H   0  0  0  0  0  0  0  0  0  0  0  0
    1.2683    0.4624    0.7494 C   0  0  0  0  0  0  0  0  0  0  0  0
    1.2620    1.0443    1.6742 H   0  0  0  0  0  0  0  0  0  0  0  0
    1.2616    1.1871   -0.0680 H   0  0  0  0  0  0  0  0  0  0  0  0
    2.5350   -0.3804    0.6807 C   0  0  0  0  0  0  0  0  0  0  0  0
    2.5724   -0.9457   -0.2505 H   0  0  0  0  0  0  0  0  0  0  0  0
    3.4320    0.2344    0.7356 H   0  0  0  0  0  0  0  0  0  0  0  0
    2.5692   -1.0958    1.5025 H   0  0  0  0  0  0  0  0  0  0  0  0
   -0.0008    0.1442    8.0636 C   0  0  0  0  0  0  0  0  0  0  0  0
    0.0003    0.0041    9.5834 C   0  0  0  0  0  0  0  0  0  0  0  0
   -0.8867    0.4681   10.0167 H   0  0  0  0  0  0  0  0  0  0  0  0
    0.0096   -1.0467    9.8764 H   0  0  0  0  0  0  0  0  0  0  0  0
    0.8790    0.4837   10.0170 H   0  0  0  0  0  0  0  0  0  0  0  0
   -1.2402   -0.5375    7.4897 C   0  0  0  0  0  0  0  0  0  0  0  0
   -1.2635   -0.4485    6.4029 H   0  0  0  0  0  0  0  0  0  0  0  0
   -1.2523   -1.5987    7.7427 H   0  0  0  0  0  0  0  0  0  0  0  0
   -2.1512   -0.0852    7.8848 H   0  0  0  0  0  0  0  0  0  0  0  0
    1.2518   -0.5134    7.4902 C   0  0  0  0  0  0  0  0  0  0  0  0
    1.2732   -0.4251    6.4032 H   0  0  0  0  0  0  0  0  0  0  0  0
    1.2850   -1.5739    7.7442 H   0  0  0  0  0  0  0  0  0  0  0  0
    2.1537   -0.0427    7.8846 H   0  0  0  0  0  0  0  0  0  0  0  0
   -0.0150    1.6240    7.6890 C   0  0  0  0  0  0  0  0  0  0  0  0
    0.8628    2.1346    8.0880 H   0  0  0  0  0  0  0  0  0  0  0  0
   -0.0155    1.7504    6.6054 H   0  0  0  0  0  0  0  0  0  0  0  0
   -0.9031    2.1173    8.0868 H   0  0  0  0  0  0  0  0  0  0  0  0
  1  4  1  0  0  0  0
  1  5  1  0  0  0  0
  1  3  1  0  0  0  0
  2  1  1  0  0  0  0
  5  6  1  0  0  0  0
  7  5  1  0  0  0  0
  8 11  1  0  0  0  0
  8  5  1  0  0  0  0
  8  9  1  0  0  0  0
 10  8  1  0  0  0  0
 11 12  1  0  0  0  0
 13 11  1  0  0  0  0
 14 16  1  0  0  0  0
 14 11  1  0  0  0  0
 14 17  1  0  0  0  0
 15 14  1  0  0  0  0
 18 19  1  0  0  0  0
 19 21  1  0  0  0  0
 19 20  1  0  0  0  0
 19 22  1  0  0  0  0
 23 25  1  0  0  0  0
 23 26  1  0  0  0  0
 23 18  1  0  0  0  0
 24 23  1  0  0  0  0
 27 29  1  0  0  0  0
 27 30  1  0  0  0  0
 27 18  1  0  0  0  0
 28 27  1  0  0  0  0
 31 18  1  0  0  0  0
 31 34  1  0  0  0  0
 31 32  1  0  0  0  0
 33 31  1  0  0  0  0
M  END
>  <SMILES>
CCCCC.C(C)(C)(C)C

>  <MoleculeName>
NeopentanePentane200

>  <Distance Scale>
2.0

>  <Energy Value>
-0.18

$$$$
/home/S66X8/3187_62PentaneAcNH2090.xyz
 OpenBabel06262409173D

 26 24  0  0  0  0  0  0  0  0999 V2000
   -2.5878   -0.3231    0.4695 C   0  0  0  0  0  0  0  0  0  0  0  0
   -2.6104   -0.8764   -0.4696 H   0  0  0  0  0  0  0  0  0  0  0  0
   -2.6597   -1.0519    1.2777 H   0  0  0  0  0  0  0  0  0  0  0  0
   -3.4760    0.3056    0.5090 H   0  0  0  0  0  0  0  0  0  0  0  0
   -1.3096    0.4974    0.5851 C   0  0  0  0  0  0  0  0  0  0  0  0
   -1.3173    1.0833    1.5063 H   0  0  0  0  0  0  0  0  0  0  0  0
   -1.2624    1.2156   -0.2368 H   0  0  0  0  0  0  0  0  0  0  0  0
   -0.0568   -0.3683    0.5584 C   0  0  0  0  0  0  0  0  0  0  0  0
   -0.0862   -1.0734    1.3959 H   0  0  0  0  0  0  0  0  0  0  0  0
   -0.0538   -0.9768   -0.3515 H   0  0  0  0  0  0  0  0  0  0  0  0
    1.2316    0.4401    0.6320 C   0  0  0  0  0  0  0  0  0  0  0  0
    1.2133    1.0536    1.5346 H   0  0  0  0  0  0  0  0  0  0  0  0
    1.2663    1.1314   -0.2131 H   0  0  0  0  0  0  0  0  0  0  0  0
    2.4726   -0.4431    0.6192 C   0  0  0  0  0  0  0  0  0  0  0  0
    2.5207   -1.0353   -0.2949 H   0  0  0  0  0  0  0  0  0  0  0  0
    3.3877    0.1441    0.6839 H   0  0  0  0  0  0  0  0  0  0  0  0
    2.4593   -1.1394    1.4586 H   0  0  0  0  0  0  0  0  0  0  0  0
    0.0380    0.1923    3.9202 C   0  0  0  0  0  0  0  0  0  0  0  0
    0.0649    1.3774    3.6283 O   0  0  0  0  0  0  0  0  0  0  0  0
    1.1706   -0.5596    4.0230 N   0  0  0  0  0  0  0  0  0  0  0  0
    2.0415   -0.1370    3.7543 H   0  0  0  0  0  0  0  0  0  0  0  0
    1.1316   -1.5515    4.1544 H   0  0  0  0  0  0  0  0  0  0  0  0
   -1.2522   -0.5466    4.1846 C   0  0  0  0  0  0  0  0  0  0  0  0
   -1.1050   -1.5073    4.6717 H   0  0  0  0  0  0  0  0  0  0  0  0
   -1.7585   -0.7049    3.2338 H   0  0  0  0  0  0  0  0  0  0  0  0
   -1.8902    0.0806    4.7999 H   0  0  0  0  0  0  0  0  0  0  0  0
  1  4  1  0  0  0  0
  1  5  1  0  0  0  0
  1  3  1  0  0  0  0
  2  1  1  0  0  0  0
  5  6  1  0  0  0  0
  7  5  1  0  0  0  0
  8  5  1  0  0  0  0
  8 11  1  0  0  0  0
  8  9  1  0  0  0  0
 10  8  1  0  0  0  0
 11 12  1  0  0  0  0
 13 11  1  0  0  0  0
 14 11  1  0  0  0  0
 14 16  1  0  0  0  0
 14 17  1  0  0  0  0
 15 14  1  0  0  0  0
 18 20  1  0  0  0  0
 18 23  1  0  0  0  0
 19 18  2  0  0  0  0
 20 22  1  0  0  0  0
 21 20  1  0  0  0  0
 23 24  1  0  0  0  0
 23 26  1  0  0  0  0
 25 23  1  0  0  0  0
M  END
>  <SMILES>
CCCCC.C(=O)(N)C

>  <MoleculeName>
PentaneAcNH2090

>  <Distance Scale>
0.9

>  <Energy Value>
-3.15

$$$$
/home/S66X8/3199_63BenzeneAcOH110.xyz
 OpenBabel06262409173D

 20 19  0  0  0  0  0  0  0  0999 V2000
    0.6068    1.3304    0.3164 C   0  0  0  0  0  0  0  0  0  0  0  0
    1.2465    2.2023    0.3304 H   0  0  0  0  0  0  0  0  0  0  0  0
    1.1181    0.0872    0.6851 C   0  0  0  0  0  0  0  0  0  0  0  0
    2.1501   -0.0039    0.9938 H   0  0  0  0  0  0  0  0  0  0  0  0
    0.2929   -1.0361    0.6691 C   0  0  0  0  0  0  0  0  0  0  0  0
    0.6885   -2.0010    0.9554 H   0  0  0  0  0  0  0  0  0  0  0  0
   -1.0428   -0.9167    0.2882 C   0  0  0  0  0  0  0  0  0  0  0  0
   -1.6827   -1.7885    0.2793 H   0  0  0  0  0  0  0  0  0  0  0  0
   -1.5536    0.3273   -0.0799 C   0  0  0  0  0  0  0  0  0  0  0  0
   -2.5892    0.4203   -0.3773 H   0  0  0  0  0  0  0  0  0  0  0  0
   -0.7280    1.4508   -0.0668 C   0  0  0  0  0  0  0  0  0  0  0  0
   -1.1236    2.4157   -0.3539 H   0  0  0  0  0  0  0  0  0  0  0  0
    0.3842   -0.2207    4.3320 C   0  0  0  0  0  0  0  0  0  0  0  0
    1.5797   -0.0567    4.4085 O   0  0  0  0  0  0  0  0  0  0  0  0
   -0.1953   -1.4321    4.5314 O   0  0  0  0  0  0  0  0  0  0  0  0
    0.5392   -2.0332    4.7245 H   0  0  0  0  0  0  0  0  0  0  0  0
   -0.6376    0.8232    4.0113 C   0  0  0  0  0  0  0  0  0  0  0  0
   -0.1594    1.7942    3.9645 H   0  0  0  0  0  0  0  0  0  0  0  0
   -1.0904    0.5900    3.0486 H   0  0  0  0  0  0  0  0  0  0  0  0
   -1.4225    0.8177    4.7638 H   0  0  0  0  0  0  0  0  0  0  0  0
  1  2  1  0  0  0  0
  1  3  1  0  0  0  0
  3  4  1  0  0  0  0
  5  3  2  0  0  0  0
  5  6  1  0  0  0  0
  7  5  1  0  0  0  0
  8  7  1  0  0  0  0
  9 11  1  0  0  0  0
  9  7  2  0  0  0  0
 10  9  1  0  0  0  0
 11  1  2  0  0  0  0
 12 11  1  0  0  0  0
 13 14  2  0  0  0  0
 13 15  1  0  0  0  0
 15 16  1  0  0  0  0
 17 13  1  0  0  0  0
 17 20  1  0  0  0  0
 18 17  1  0  0  0  0
 19 17  1  0  0  0  0
M  END
>  <SMILES>
c1ccccc1.C(=O)(O)C

>  <MoleculeName>
BenzeneAcOH110

>  <Distance Scale>
1.1

>  <Energy Value>
-3.34

$$$$
/home/S66X8/2735_05MeOHMeOH110.xyz
 OpenBabel06262409173D

 12 10  0  0  0  0  0  0  0  0999 V2000
   -0.6361   -0.0233    0.2806 O   0  0  0  0  0  0  0  0  0  0  0  0
    0.3081   -0.0471    0.0765 H   0  0  0  0  0  0  0  0  0  0  0  0
   -1.1521   -1.3113    0.0153 C   0  0  0  0  0  0  0  0  0  0  0  0
   -2.2099   -1.2963    0.2640 H   0  0  0  0  0  0  0  0  0  0  0  0
   -1.0566   -1.5927   -1.0362 H   0  0  0  0  0  0  0  0  0  0  0  0
   -0.6748   -2.0863    0.6205 H   0  0  0  0  0  0  0  0  0  0  0  0
    2.4347   -0.1310   -0.0225 O   0  0  0  0  0  0  0  0  0  0  0  0
    2.9034    0.4834   -0.5922 H   0  0  0  0  0  0  0  0  0  0  0  0
    2.9435    0.0261    1.2992 C   0  0  0  0  0  0  0  0  0  0  0  0
    2.3899   -0.6621    1.9293 H   0  0  0  0  0  0  0  0  0  0  0  0
    4.0025   -0.2244    1.3559 H   0  0  0  0  0  0  0  0  0  0  0  0
    2.7911    1.0367    1.6771 H   0  0  0  0  0  0  0  0  0  0  0  0
  2  1  1  0  0  0  0
  3  4  1  0  0  0  0
  3  1  1  0  0  0  0
  3  6  1  0  0  0  0
  5  3  1  0  0  0  0
  7  9  1  0  0  0  0
  8  7  1  0  0  0  0
  9 11  1  0  0  0  0
  9 12  1  0  0  0  0
  9 10  1  0  0  0  0
M  END
>  <SMILES>
OC.OC

>  <MoleculeName>
MeOHMeOH110

>  <Distance Scale>
1.1

>  <Energy Value>
-5.28

$$$$
/home/S66X8/3091_50BenzeneEthyneCHpi090.xyz
 OpenBabel06262409173D

 16 15  0  0  0  0  0  0  0  0999 V2000
    0.8366    1.1149    0.2310 C   0  0  0  0  0  0  0  0  0  0  0  0
    1.4855    1.9797    0.2147 H   0  0  0  0  0  0  0  0  0  0  0  0
    1.3842   -0.1670    0.2601 C   0  0  0  0  0  0  0  0  0  0  0  0
    2.4577   -0.2963    0.2661 H   0  0  0  0  0  0  0  0  0  0  0  0
    0.5475   -1.2818    0.2869 C   0  0  0  0  0  0  0  0  0  0  0  0
    0.9719   -2.2760    0.3139 H   0  0  0  0  0  0  0  0  0  0  0  0
   -0.8367   -1.1150    0.2846 C   0  0  0  0  0  0  0  0  0  0  0  0
   -1.4856   -1.9796    0.3097 H   0  0  0  0  0  0  0  0  0  0  0  0
   -1.3842    0.1669    0.2556 C   0  0  0  0  0  0  0  0  0  0  0  0
   -2.4576    0.2965    0.2585 H   0  0  0  0  0  0  0  0  0  0  0  0
   -0.5475    1.2817    0.2290 C   0  0  0  0  0  0  0  0  0  0  0  0
   -0.9721    2.2760    0.2112 H   0  0  0  0  0  0  0  0  0  0  0  0
    0.0054    0.0669    3.4275 C   0  0  0  0  0  0  0  0  0  0  0  0
    0.0024    0.0493    2.3634 H   0  0  0  0  0  0  0  0  0  0  0  0
    0.0091    0.0865    4.6399 C   0  0  0  0  0  0  0  0  0  0  0  0
    0.0122    0.1036    5.7011 H   0  0  0  0  0  0  0  0  0  0  0  0
  1  3  1  0  0  0  0
  2  1  1  0  0  0  0
  3  4  1  0  0  0  0
  3  5  2  0  0  0  0
  5  6  1  0  0  0  0
  7  5  1  0  0  0  0
  7  8  1  0  0  0  0
  9 10  1  0  0  0  0
  9  7  2  0  0  0  0
 11  1  2  0  0  0  0
 11  9  1  0  0  0  0
 12 11  1  0  0  0  0
 13 15  3  0  0  0  0
 14 13  1  0  0  0  0
 15 16  1  0  0  0  0
M  END
>  <SMILES>
c1ccccc1.C#C

>  <MoleculeName>
BenzeneEthyneCHpi090

>  <Distance Scale>
0.9

>  <Energy Value>
-1.87

$$$$
/home/S66X8/3163_59EthyneWaterCHO090.xyz
 OpenBabel06262409173D

  7  5  0  0  0  0  0  0  0  0999 V2000
   -1.0069   -0.0306   -0.0248 C   0  0  0  0  0  0  0  0  0  0  0  0
    0.0590   -0.0609   -0.0494 H   0  0  0  0  0  0  0  0  0  0  0  0
   -2.2187    0.0032    0.0026 C   0  0  0  0  0  0  0  0  0  0  0  0
   -3.2793    0.0335    0.0272 H   0  0  0  0  0  0  0  0  0  0  0  0
    2.0657   -0.1380   -0.1095 O   0  0  0  0  0  0  0  0  0  0  0  0
    2.6361   -0.7277    0.3875 H   0  0  0  0  0  0  0  0  0  0  0  0
    2.6377    0.2130   -0.7949 H   0  0  0  0  0  0  0  0  0  0  0  0
  1  3  3  0  0  0  0
  2  1  1  0  0  0  0
  3  4  1  0  0  0  0
  5  6  1  0  0  0  0
  7  5  1  0  0  0  0
M  END
>  <SMILES>
C#C.O

>  <MoleculeName>
EthyneWaterCHO090

>  <Distance Scale>
0.9

>  <Energy Value>
-2.52

$$$$
/home/S66X8/2996_38CyclopentaneCyclopentane095.xyz
 OpenBabel06262409173D

 30 30  0  0  0  0  0  0  0  0999 V2000
    0.9569   -0.8918    1.1420 C   0  0  0  0  0  0  0  0  0  0  0  0
    1.5046   -1.2784    0.2834 H   0  0  0  0  0  0  0  0  0  0  0  0
    1.4214   -1.3148    2.0310 H   0  0  0  0  0  0  0  0  0  0  0  0
    0.9909    0.6585    1.1455 C   0  0  0  0  0  0  0  0  0  0  0  0
    1.5106    1.0231    0.2599 H   0  0  0  0  0  0  0  0  0  0  0  0
    1.5163    1.0598    2.0105 H   0  0  0  0  0  0  0  0  0  0  0  0
   -0.4795    1.1023    1.1039 C   0  0  0  0  0  0  0  0  0  0  0  0
   -0.6163    2.0649    0.6136 H   0  0  0  0  0  0  0  0  0  0  0  0
   -0.8747    1.1891    2.1181 H   0  0  0  0  0  0  0  0  0  0  0  0
   -1.1821   -0.0528    0.3933 C   0  0  0  0  0  0  0  0  0  0  0  0
   -0.9489   -0.0268   -0.6738 H   0  0  0  0  0  0  0  0  0  0  0  0
   -2.2657   -0.0336    0.5013 H   0  0  0  0  0  0  0  0  0  0  0  0
   -0.5307   -1.2749    1.0393 C   0  0  0  0  0  0  0  0  0  0  0  0
   -0.6904   -2.1970    0.4830 H   0  0  0  0  0  0  0  0  0  0  0  0
   -0.9508   -1.4154    2.0367 H   0  0  0  0  0  0  0  0  0  0  0  0
   -1.1352   -0.3903    4.9109 C   0  0  0  0  0  0  0  0  0  0  0  0
   -1.4683   -0.1536    3.8983 H   0  0  0  0  0  0  0  0  0  0  0  0
   -1.9400   -0.9334    5.4039 H   0  0  0  0  0  0  0  0  0  0  0  0
    0.1784   -1.1858    4.8632 C   0  0  0  0  0  0  0  0  0  0  0  0
    0.2284   -1.8436    3.9970 H   0  0  0  0  0  0  0  0  0  0  0  0
    0.2587   -1.8172    5.7476 H   0  0  0  0  0  0  0  0  0  0  0  0
    1.3078   -0.1231    4.8638 C   0  0  0  0  0  0  0  0  0  0  0  0
    1.9290   -0.1838    3.9719 H   0  0  0  0  0  0  0  0  0  0  0  0
    1.9652   -0.2730    5.7192 H   0  0  0  0  0  0  0  0  0  0  0  0
    0.5976    1.2385    4.9716 C   0  0  0  0  0  0  0  0  0  0  0  0
    0.4177    1.6470    3.9756 H   0  0  0  0  0  0  0  0  0  0  0  0
    1.1780    1.9729    5.5276 H   0  0  0  0  0  0  0  0  0  0  0  0
   -0.7445    0.9041    5.6214 C   0  0  0  0  0  0  0  0  0  0  0  0
   -1.4841    1.6966    5.5166 H   0  0  0  0  0  0  0  0  0  0  0  0
   -0.6044    0.7124    6.6880 H   0  0  0  0  0  0  0  0  0  0  0  0
  1  4  1  0  0  0  0
  1  3  1  0  0  0  0
  2  1  1  0  0  0  0
  4  6  1  0  0  0  0
  5  4  1  0  0  0  0
  7  4  1  0  0  0  0
  7  9  1  0  0  0  0
  8  7  1  0  0  0  0
 10 12  1  0  0  0  0
 10 13  1  0  0  0  0
 10  7  1  0  0  0  0
 11 10  1  0  0  0  0
 13  1  1  0  0  0  0
 13 15  1  0  0  0  0
 14 13  1  0  0  0  0
 16 18  1  0  0  0  0
 16 28  1  0  0  0  0
 17 16  1  0  0  0  0
 19 22  1  0  0  0  0
 19 16  1  0  0  0  0
 19 21  1  0  0  0  0
 20 19  1  0  0  0  0
 22 25  1  0  0  0  0
 22 24  1  0  0  0  0
 23 22  1  0  0  0  0
 25 27  1  0  0  0  0
 25 28  1  0  0  0  0
 26 25  1  0  0  0  0
 28 30  1  0  0  0  0
 29 28  1  0  0  0  0
M  END
>  <SMILES>
C1CCCC1.C1CCCC1

>  <MoleculeName>
CyclopentaneCyclopentane095

>  <Distance Scale>
0.95

>  <Energy Value>
-2.84

$$$$
/home/S66X8/2770_09MeNH2MeOH200.xyz
 OpenBabel06262409173D

 13 11  0  0  0  0  0  0  0  0999 V2000
   -0.8935   -0.0438   -0.0430 N   0  0  0  0  0  0  0  0  0  0  0  0
    0.0969   -0.2561   -0.0711 H   0  0  0  0  0  0  0  0  0  0  0  0
   -1.3684   -0.9334    0.0338 H   0  0  0  0  0  0  0  0  0  0  0  0
   -1.1758    0.7579    1.1452 C   0  0  0  0  0  0  0  0  0  0  0  0
   -2.2416    0.9722    1.1950 H   0  0  0  0  0  0  0  0  0  0  0  0
   -0.8808    0.3042    2.0972 H   0  0  0  0  0  0  0  0  0  0  0  0
   -0.6630    1.7143    1.0608 H   0  0  0  0  0  0  0  0  0  0  0  0
    4.5972    0.1730    0.1324 O   0  0  0  0  0  0  0  0  0  0  0  0
    4.8792    0.5430   -0.7075 H   0  0  0  0  0  0  0  0  0  0  0  0
    4.9831    1.0846    1.1518 C   0  0  0  0  0  0  0  0  0  0  0  0
    4.6599    0.6550    2.0949 H   0  0  0  0  0  0  0  0  0  0  0  0
    6.0642    1.2237    1.1909 H   0  0  0  0  0  0  0  0  0  0  0  0
    4.5046    2.0582    1.0366 H   0  0  0  0  0  0  0  0  0  0  0  0
  1  3  1  0  0  0  0
  1  4  1  0  0  0  0
  2  1  1  0  0  0  0
  4  5  1  0  0  0  0
  4  6  1  0  0  0  0
  7  4  1  0  0  0  0
  8 10  1  0  0  0  0
  9  8  1  0  0  0  0
 10 12  1  0  0  0  0
 10 11  1  0  0  0  0
 13 10  1  0  0  0  0
M  END
>  <SMILES>
NC.OC

>  <MoleculeName>
MeNH2MeOH200

>  <Distance Scale>
2.0

>  <Energy Value>
-0.39

$$$$
/home/S66X8/2808_14PeptideMeNH2125.xyz
 OpenBabel06262409173D

 19 17  0  0  0  0  0  0  0  0999 V2000
   -0.7786   -0.4633    2.4904 C   0  0  0  0  0  0  0  0  0  0  0  0
    0.2247   -0.0510    2.4135 H   0  0  0  0  0  0  0  0  0  0  0  0
   -0.7225   -1.4871    2.8546 H   0  0  0  0  0  0  0  0  0  0  0  0
   -1.3519    0.1108    3.2137 H   0  0  0  0  0  0  0  0  0  0  0  0
   -1.5205   -0.4566    1.1723 C   0  0  0  0  0  0  0  0  0  0  0  0
   -2.7008   -0.7836    1.0896 O   0  0  0  0  0  0  0  0  0  0  0  0
   -0.7920   -0.0696    0.1006 N   0  0  0  0  0  0  0  0  0  0  0  0
    0.1941    0.1457    0.2029 H   0  0  0  0  0  0  0  0  0  0  0  0
   -1.3978   -0.0561   -1.2113 C   0  0  0  0  0  0  0  0  0  0  0  0
   -2.3149    0.5289   -1.1997 H   0  0  0  0  0  0  0  0  0  0  0  0
   -0.6988    0.3873   -1.9154 H   0  0  0  0  0  0  0  0  0  0  0  0
   -1.6530   -1.0615   -1.5454 H   0  0  0  0  0  0  0  0  0  0  0  0
    2.7708    0.2829    0.3033 N   0  0  0  0  0  0  0  0  0  0  0  0
    3.1744    0.8229    1.0585 H   0  0  0  0  0  0  0  0  0  0  0  0
    3.1888    0.6503   -0.5424 H   0  0  0  0  0  0  0  0  0  0  0  0
    3.1431   -1.1283    0.4570 C   0  0  0  0  0  0  0  0  0  0  0  0
    2.7168   -1.6993   -0.3644 H   0  0  0  0  0  0  0  0  0  0  0  0
    4.2185   -1.3149    0.4828 H   0  0  0  0  0  0  0  0  0  0  0  0
    2.7086   -1.5127    1.3768 H   0  0  0  0  0  0  0  0  0  0  0  0
  1  3  1  0  0  0  0
  1  4  1  0  0  0  0
  2  1  1  0  0  0  0
  5  1  1  0  0  0  0
  6  5  2  0  0  0  0
  7  8  1  0  0  0  0
  7  5  1  0  0  0  0
  9 10  1  0  0  0  0
  9  7  1  0  0  0  0
 11  9  1  0  0  0  0
 12  9  1  0  0  0  0
 13 16  1  0  0  0  0
 13 14  1  0  0  0  0
 15 13  1  0  0  0  0
 16 18  1  0  0  0  0
 16 19  1  0  0  0  0
 17 16  1  0  0  0  0
M  END
>  <SMILES>
CC(=O)NC.NC

>  <MoleculeName>
PeptideMeNH2125

>  <Distance Scale>
1.25

>  <Energy Value>
-5.61

$$$$
/home/S66X8/3068_47BenzeneBenzeneTS095.xyz
 OpenBabel06262409173D

 24 24  0  0  0  0  0  0  0  0999 V2000
    0.7292    1.1131    0.3267 C   0  0  0  0  0  0  0  0  0  0  0  0
    1.3032    2.0142    0.1592 H   0  0  0  0  0  0  0  0  0  0  0  0
    1.3751   -0.1194    0.4128 C   0  0  0  0  0  0  0  0  0  0  0  0
    2.4505   -0.1746    0.3133 H   0  0  0  0  0  0  0  0  0  0  0  0
    0.6350   -1.2806    0.6294 C   0  0  0  0  0  0  0  0  0  0  0  0
    1.1363   -2.2360    0.7002 H   0  0  0  0  0  0  0  0  0  0  0  0
   -0.7510   -1.2097    0.7579 C   0  0  0  0  0  0  0  0  0  0  0  0
   -1.3245   -2.1114    0.9242 H   0  0  0  0  0  0  0  0  0  0  0  0
   -1.3970    0.0227    0.6731 C   0  0  0  0  0  0  0  0  0  0  0  0
   -2.4724    0.0785    0.7740 H   0  0  0  0  0  0  0  0  0  0  0  0
   -0.6569    1.1843    0.4583 C   0  0  0  0  0  0  0  0  0  0  0  0
   -1.1578    2.1406    0.3951 H   0  0  0  0  0  0  0  0  0  0  0  0
    0.1346    0.1184    3.8844 C   0  0  0  0  0  0  0  0  0  0  0  0
    0.2567    0.3439    2.8340 H   0  0  0  0  0  0  0  0  0  0  0  0
   -0.9565   -0.6365    4.3118 C   0  0  0  0  0  0  0  0  0  0  0  0
   -1.6770   -0.9930    3.5881 H   0  0  0  0  0  0  0  0  0  0  0  0
   -1.1172   -0.9306    5.6647 C   0  0  0  0  0  0  0  0  0  0  0  0
   -1.9643   -1.5166    5.9950 H   0  0  0  0  0  0  0  0  0  0  0  0
   -0.1853   -0.4696    6.5932 C   0  0  0  0  0  0  0  0  0  0  0  0
   -0.3092   -0.6975    7.6432 H   0  0  0  0  0  0  0  0  0  0  0  0
    0.9063    0.2855    6.1680 C   0  0  0  0  0  0  0  0  0  0  0  0
    1.6294    0.6434    6.8884 H   0  0  0  0  0  0  0  0  0  0  0  0
    1.0651    0.5790    4.8145 C   0  0  0  0  0  0  0  0  0  0  0  0
    1.9123    1.1651    4.4844 H   0  0  0  0  0  0  0  0  0  0  0  0
  1  3  2  0  0  0  0
  1 11  1  0  0  0  0
  2  1  1  0  0  0  0
  3  5  1  0  0  0  0
  4  3  1  0  0  0  0
  5  6  1  0  0  0  0
  5  7  2  0  0  0  0
  7  8  1  0  0  0  0
  9  7  1  0  0  0  0
  9 10  1  0  0  0  0
 11  9  2  0  0  0  0
 12 11  1  0  0  0  0
 13 15  2  0  0  0  0
 13 23  1  0  0  0  0
 14 13  1  0  0  0  0
 15 17  1  0  0  0  0
 16 15  1  0  0  0  0
 17 18  1  0  0  0  0
 17 19  2  0  0  0  0
 19 20  1  0  0  0  0
 21 19  1  0  0  0  0
 21 22  1  0  0  0  0
 23 21  2  0  0  0  0
 24 23  1  0  0  0  0
M  END
>  <SMILES>
c1ccccc1.c1ccccc1

>  <MoleculeName>
BenzeneBenzeneTS095

>  <Distance Scale>
0.95

>  <Energy Value>
-2.58

$$$$
/home/S66X8/2995_38CyclopentaneCyclopentane090.xyz
 OpenBabel06262409173D

 30 30  0  0  0  0  0  0  0  0999 V2000
    0.9569   -0.8918    1.1420 C   0  0  0  0  0  0  0  0  0  0  0  0
    1.5046   -1.2784    0.2834 H   0  0  0  0  0  0  0  0  0  0  0  0
    1.4214   -1.3148    2.0310 H   0  0  0  0  0  0  0  0  0  0  0  0
    0.9909    0.6585    1.1455 C   0  0  0  0  0  0  0  0  0  0  0  0
    1.5106    1.0231    0.2599 H   0  0  0  0  0  0  0  0  0  0  0  0
    1.5163    1.0598    2.0105 H   0  0  0  0  0  0  0  0  0  0  0  0
   -0.4795    1.1023    1.1039 C   0  0  0  0  0  0  0  0  0  0  0  0
   -0.6163    2.0649    0.6136 H   0  0  0  0  0  0  0  0  0  0  0  0
   -0.8747    1.1891    2.1181 H   0  0  0  0  0  0  0  0  0  0  0  0
   -1.1821   -0.0528    0.3933 C   0  0  0  0  0  0  0  0  0  0  0  0
   -0.9489   -0.0268   -0.6738 H   0  0  0  0  0  0  0  0  0  0  0  0
   -2.2657   -0.0336    0.5013 H   0  0  0  0  0  0  0  0  0  0  0  0
   -0.5307   -1.2749    1.0393 C   0  0  0  0  0  0  0  0  0  0  0  0
   -0.6904   -2.1970    0.4830 H   0  0  0  0  0  0  0  0  0  0  0  0
   -0.9508   -1.4154    2.0367 H   0  0  0  0  0  0  0  0  0  0  0  0
   -1.1382   -0.3965    4.7701 C   0  0  0  0  0  0  0  0  0  0  0  0
   -1.4714   -0.1598    3.7575 H   0  0  0  0  0  0  0  0  0  0  0  0
   -1.9430   -0.9396    5.2631 H   0  0  0  0  0  0  0  0  0  0  0  0
    0.1754   -1.1920    4.7224 C   0  0  0  0  0  0  0  0  0  0  0  0
    0.2253   -1.8498    3.8562 H   0  0  0  0  0  0  0  0  0  0  0  0
    0.2556   -1.8234    5.6067 H   0  0  0  0  0  0  0  0  0  0  0  0
    1.3047   -0.1293    4.7229 C   0  0  0  0  0  0  0  0  0  0  0  0
    1.9259   -0.1900    3.8311 H   0  0  0  0  0  0  0  0  0  0  0  0
    1.9621   -0.2792    5.5784 H   0  0  0  0  0  0  0  0  0  0  0  0
    0.5945    1.2323    4.8308 C   0  0  0  0  0  0  0  0  0  0  0  0
    0.4146    1.6408    3.8348 H   0  0  0  0  0  0  0  0  0  0  0  0
    1.1749    1.9667    5.3868 H   0  0  0  0  0  0  0  0  0  0  0  0
   -0.7476    0.8979    5.4806 C   0  0  0  0  0  0  0  0  0  0  0  0
   -1.4872    1.6904    5.3757 H   0  0  0  0  0  0  0  0  0  0  0  0
   -0.6075    0.7062    6.5472 H   0  0  0  0  0  0  0  0  0  0  0  0
  1  4  1  0  0  0  0
  1  3  1  0  0  0  0
  2  1  1  0  0  0  0
  4  6  1  0  0  0  0
  5  4  1  0  0  0  0
  7  4  1  0  0  0  0
  7  9  1  0  0  0  0
  8  7  1  0  0  0  0
 10 12  1  0  0  0  0
 10 13  1  0  0  0  0
 10  7  1  0  0  0  0
 11 10  1  0  0  0  0
 13  1  1  0  0  0  0
 13 15  1  0  0  0  0
 14 13  1  0  0  0  0
 16 18  1  0  0  0  0
 16 28  1  0  0  0  0
 17 16  1  0  0  0  0
 19 22  1  0  0  0  0
 19 16  1  0  0  0  0
 19 21  1  0  0  0  0
 20 19  1  0  0  0  0
 22 25  1  0  0  0  0
 22 24  1  0  0  0  0
 23 22  1  0  0  0  0
 25 27  1  0  0  0  0
 25 28  1  0  0  0  0
 26 25  1  0  0  0  0
 28 30  1  0  0  0  0
 29 28  1  0  0  0  0
M  END
>  <SMILES>
C1CCCC1.C1CCCC1

>  <MoleculeName>
CyclopentaneCyclopentane090

>  <Distance Scale>
0.9

>  <Energy Value>
-2.24

$$$$
/home/S66X8/2895_25PyridinePyridinepipi110.xyz
 OpenBabel06262409173D

 22 22  0  0  0  0  0  0  0  0999 V2000
    1.5725    0.2545   -0.2565 N   0  0  0  0  0  0  0  0  0  0  0  0
    0.9694   -0.9032    0.0445 C   0  0  0  0  0  0  0  0  0  0  0  0
    1.6136   -1.7722    0.1023 H   0  0  0  0  0  0  0  0  0  0  0  0
   -0.3982   -1.0288    0.2810 C   0  0  0  0  0  0  0  0  0  0  0  0
   -0.8184   -1.9917    0.5336 H   0  0  0  0  0  0  0  0  0  0  0  0
   -1.1958    0.1066    0.1954 C   0  0  0  0  0  0  0  0  0  0  0  0
   -2.2607    0.0495    0.3734 H   0  0  0  0  0  0  0  0  0  0  0  0
   -0.5871    1.3174   -0.1201 C   0  0  0  0  0  0  0  0  0  0  0  0
   -1.1618    2.2295   -0.2005 H   0  0  0  0  0  0  0  0  0  0  0  0
    0.7885    1.3397   -0.3322 C   0  0  0  0  0  0  0  0  0  0  0  0
    1.2884    2.2688   -0.5785 H   0  0  0  0  0  0  0  0  0  0  0  0
   -0.5620   -1.5399    4.0910 N   0  0  0  0  0  0  0  0  0  0  0  0
   -1.4945   -0.5792    4.1649 C   0  0  0  0  0  0  0  0  0  0  0  0
   -2.4973   -0.9102    4.4071 H   0  0  0  0  0  0  0  0  0  0  0  0
   -1.2325    0.7718    3.9555 C   0  0  0  0  0  0  0  0  0  0  0  0
   -2.0310    1.4963    4.0338 H   0  0  0  0  0  0  0  0  0  0  0  0
    0.0669    1.1611    3.6452 C   0  0  0  0  0  0  0  0  0  0  0  0
    0.3089    2.2001    3.4694 H   0  0  0  0  0  0  0  0  0  0  0  0
    1.0465    0.1782    3.5619 C   0  0  0  0  0  0  0  0  0  0  0  0
    2.0688    0.4249    3.3134 H   0  0  0  0  0  0  0  0  0  0  0  0
    0.6840   -1.1470    3.7951 C   0  0  0  0  0  0  0  0  0  0  0  0
    1.4279   -1.9325    3.7386 H   0  0  0  0  0  0  0  0  0  0  0  0
  1  2  1  0  0  0  0
  2  3  1  0  0  0  0
  2  4  2  0  0  0  0
  4  5  1  0  0  0  0
  6  4  1  0  0  0  0
  6  7  1  0  0  0  0
  8  6  2  0  0  0  0
  9  8  1  0  0  0  0
 10  1  2  0  0  0  0
 10  8  1  0  0  0  0
 11 10  1  0  0  0  0
 12 13  1  0  0  0  0
 13 14  1  0  0  0  0
 15 16  1  0  0  0  0
 15 13  2  0  0  0  0
 17 15  1  0  0  0  0
 18 17  1  0  0  0  0
 19 17  2  0  0  0  0
 19 21  1  0  0  0  0
 20 19  1  0  0  0  0
 21 12  2  0  0  0  0
 22 21  1  0  0  0  0
M  END
>  <SMILES>
n1ccccc1.n1ccccc1

>  <MoleculeName>
PyridinePyridinepipi110

>  <Distance Scale>
1.1

>  <Energy Value>
-3.58

$$$$
/home/S66X8/2772_10MeNH2MeNH2095.xyz
 OpenBabel06262409173D

 14 12  0  0  0  0  0  0  0  0999 V2000
   -0.6386    0.4709    0.0446 N   0  0  0  0  0  0  0  0  0  0  0  0
    0.1900   -0.1139   -0.0058 H   0  0  0  0  0  0  0  0  0  0  0  0
   -1.3005    0.0813   -0.6137 H   0  0  0  0  0  0  0  0  0  0  0  0
   -1.1987    0.3914    1.3919 C   0  0  0  0  0  0  0  0  0  0  0  0
   -2.0927    1.0092    1.4532 H   0  0  0  0  0  0  0  0  0  0  0  0
   -1.4627   -0.6158    1.7295 H   0  0  0  0  0  0  0  0  0  0  0  0
   -0.4803    0.7987    2.1011 H   0  0  0  0  0  0  0  0  0  0  0  0
    2.3187   -0.4431    0.1897 N   0  0  0  0  0  0  0  0  0  0  0  0
    2.6149   -0.1686   -0.7383 H   0  0  0  0  0  0  0  0  0  0  0  0
    2.9422   -1.1908    0.4649 H   0  0  0  0  0  0  0  0  0  0  0  0
    2.4789    0.6921    1.1034 C   0  0  0  0  0  0  0  0  0  0  0  0
    2.2087    0.3774    2.1090 H   0  0  0  0  0  0  0  0  0  0  0  0
    3.4863    1.1139    1.1403 H   0  0  0  0  0  0  0  0  0  0  0  0
    1.7864    1.4779    0.8107 H   0  0  0  0  0  0  0  0  0  0  0  0
  1  4  1  0  0  0  0
  2  1  1  0  0  0  0
  3  1  1  0  0  0  0
  4  5  1  0  0  0  0
  4  6  1  0  0  0  0
  4  7  1  0  0  0  0
  8 10  1  0  0  0  0
  8 11  1  0  0  0  0
  9  8  1  0  0  0  0
 11 13  1  0  0  0  0
 11 12  1  0  0  0  0
 14 11  1  0  0  0  0
M  END
>  <SMILES>
NC.NC

>  <MoleculeName>
MeNH2MeNH2095

>  <Distance Scale>
0.95

>  <Energy Value>
-4.09

$$$$
/home/S66X8/3213_65PyridineEthyne100.xyz
 OpenBabel06262409173D

 15 14  0  0  0  0  0  0  0  0999 V2000
   -0.0830    0.0007    1.0552 N   0  0  0  0  0  0  0  0  0  0  0  0
   -0.2029   -1.1417    0.3649 C   0  0  0  0  0  0  0  0  0  0  0  0
   -0.0985   -2.0551    0.9374 H   0  0  0  0  0  0  0  0  0  0  0  0
   -0.4468   -1.1918   -1.0045 C   0  0  0  0  0  0  0  0  0  0  0  0
   -0.5336   -2.1459   -1.5042 H   0  0  0  0  0  0  0  0  0  0  0  0
   -0.5747    0.0034   -1.7043 C   0  0  0  0  0  0  0  0  0  0  0  0
   -0.7637    0.0045   -2.7687 H   0  0  0  0  0  0  0  0  0  0  0  0
   -0.4535    1.1972   -1.0009 C   0  0  0  0  0  0  0  0  0  0  0  0
   -0.5456    2.1523   -1.4978 H   0  0  0  0  0  0  0  0  0  0  0  0
   -0.2093    1.1445    0.3684 C   0  0  0  0  0  0  0  0  0  0  0  0
   -0.1102    2.0567    0.9436 H   0  0  0  0  0  0  0  0  0  0  0  0
    0.4741   -0.0061    5.5579 C   0  0  0  0  0  0  0  0  0  0  0  0
    0.5895   -0.0055    6.6129 H   0  0  0  0  0  0  0  0  0  0  0  0
    0.3420   -0.0067    4.3517 C   0  0  0  0  0  0  0  0  0  0  0  0
    0.2238   -0.0064    3.2872 H   0  0  0  0  0  0  0  0  0  0  0  0
  2  3  1  0  0  0  0
  2  1  2  0  0  0  0
  4  2  1  0  0  0  0
  5  4  1  0  0  0  0
  6  4  2  0  0  0  0
  6  8  1  0  0  0  0
  7  6  1  0  0  0  0
  8 10  2  0  0  0  0
  9  8  1  0  0  0  0
 10 11  1  0  0  0  0
 10  1  1  0  0  0  0
 12 13  1  0  0  0  0
 14 12  3  0  0  0  0
 15 14  1  0  0  0  0
M  END
>  <SMILES>
n1ccccc1.C#C

>  <MoleculeName>
PyridineEthyne100

>  <Distance Scale>
1.0

>  <Energy Value>
-3.99

$$$$
/home/S66X8/2874_22AcOHUracil200.xyz
 OpenBabel06262409173D

 20 19  0  0  0  0  0  0  0  0999 V2000
   -1.1136    1.3270    0.2752 C   0  0  0  0  0  0  0  0  0  0  0  0
   -0.4671    2.3494    0.4615 O   0  0  0  0  0  0  0  0  0  0  0  0
   -0.5781    0.1369    0.0496 O   0  0  0  0  0  0  0  0  0  0  0  0
    0.4133    0.2033    0.0555 H   0  0  0  0  0  0  0  0  0  0  0  0
   -2.6114    1.2862    0.2774 C   0  0  0  0  0  0  0  0  0  0  0  0
   -3.0066    2.2769    0.4658 H   0  0  0  0  0  0  0  0  0  0  0  0
   -2.9643    0.9153   -0.6820 H   0  0  0  0  0  0  0  0  0  0  0  0
   -2.9531    0.5918    1.0412 H   0  0  0  0  0  0  0  0  0  0  0  0
    5.9012    1.1312    0.1764 N   0  0  0  0  0  0  0  0  0  0  0  0
    6.2944    0.2158    0.0047 H   0  0  0  0  0  0  0  0  0  0  0  0
    6.8228    2.1793    0.3579 C   0  0  0  0  0  0  0  0  0  0  0  0
    8.0199    1.9610    0.3050 O   0  0  0  0  0  0  0  0  0  0  0  0
    6.1837    3.4587    0.5985 C   0  0  0  0  0  0  0  0  0  0  0  0
    6.8032    4.3257    0.7500 H   0  0  0  0  0  0  0  0  0  0  0  0
    4.8366    3.5387    0.6279 C   0  0  0  0  0  0  0  0  0  0  0  0
    4.3138    4.4672    0.8032 H   0  0  0  0  0  0  0  0  0  0  0  0
    4.0329    2.4480    0.4375 N   0  0  0  0  0  0  0  0  0  0  0  0
    3.0088    2.5180    0.4612 H   0  0  0  0  0  0  0  0  0  0  0  0
    4.5328    1.1978    0.2033 C   0  0  0  0  0  0  0  0  0  0  0  0
    3.8208    0.2083    0.0298 O   0  0  0  0  0  0  0  0  0  0  0  0
  1  5  1  0  0  0  0
  1  2  2  0  0  0  0
  3  4  1  0  0  0  0
  3  1  1  0  0  0  0
  5  6  1  0  0  0  0
  5  8  1  0  0  0  0
  7  5  1  0  0  0  0
  9 19  1  0  0  0  0
  9 11  1  0  0  0  0
 10  9  1  0  0  0  0
 11 13  1  0  0  0  0
 12 11  2  0  0  0  0
 13 15  2  0  0  0  0
 13 14  1  0  0  0  0
 15 16  1  0  0  0  0
 17 18  1  0  0  0  0
 17 15  1  0  0  0  0
 19 17  1  0  0  0  0
 20 19  2  0  0  0  0
M  END
>  <SMILES>
C(=O)(O)C.[nH]1c(=O)cc[nH]c1=O

>  <MoleculeName>
AcOHUracil200

>  <Distance Scale>
2.0

>  <Energy Value>
-4.15

$$$$
/home/S66X8/3123_54BenzeneWaterOHpi090.xyz
 OpenBabel06262409173D

 15 14  0  0  0  0  0  0  0  0999 V2000
    0.7801   -0.6099   -1.2076 C   0  0  0  0  0  0  0  0  0  0  0  0
    0.8962   -1.1376   -2.1441 H   0  0  0  0  0  0  0  0  0  0  0  0
    0.4779    0.7510   -1.2079 C   0  0  0  0  0  0  0  0  0  0  0  0
    0.3570    1.2782   -2.1441 H   0  0  0  0  0  0  0  0  0  0  0  0
    0.3273    1.4319   -0.0000 C   0  0  0  0  0  0  0  0  0  0  0  0
    0.0915    2.4871    0.0000 H   0  0  0  0  0  0  0  0  0  0  0  0
    0.4779    0.7510    1.2079 C   0  0  0  0  0  0  0  0  0  0  0  0
    0.3570    1.2782    2.1441 H   0  0  0  0  0  0  0  0  0  0  0  0
    0.7801   -0.6099    1.2076 C   0  0  0  0  0  0  0  0  0  0  0  0
    0.8962   -1.1376    2.1441 H   0  0  0  0  0  0  0  0  0  0  0  0
    0.9316   -1.2900    0.0000 C   0  0  0  0  0  0  0  0  0  0  0  0
    1.1685   -2.3452   -0.0000 H   0  0  0  0  0  0  0  0  0  0  0  0
   -2.4997   -0.2419    0.0000 O   0  0  0  0  0  0  0  0  0  0  0  0
   -2.3349   -1.1866    0.0000 H   0  0  0  0  0  0  0  0  0  0  0  0
   -1.6124    0.1297    0.0000 H   0  0  0  0  0  0  0  0  0  0  0  0
  1 11  1  0  0  0  0
  2  1  1  0  0  0  0
  3  1  2  0  0  0  0
  3  5  1  0  0  0  0
  4  3  1  0  0  0  0
  5  6  1  0  0  0  0
  5  7  2  0  0  0  0
  7  8  1  0  0  0  0
  9  7  1  0  0  0  0
  9 10  1  0  0  0  0
 11 12  1  0  0  0  0
 11  9  2  0  0  0  0
 13 14  1  0  0  0  0
 13 15  1  0  0  0  0
M  END
>  <SMILES>
c1ccccc1.O

>  <MoleculeName>
BenzeneWaterOHpi090

>  <Distance Scale>
0.9

>  <Energy Value>
-2.8

$$$$
/home/S66X8/3126_54BenzeneWaterOHpi105.xyz
 OpenBabel06262409173D

 15 14  0  0  0  0  0  0  0  0999 V2000
    0.7801   -0.6099   -1.2076 C   0  0  0  0  0  0  0  0  0  0  0  0
    0.8962   -1.1376   -2.1441 H   0  0  0  0  0  0  0  0  0  0  0  0
    0.4779    0.7510   -1.2079 C   0  0  0  0  0  0  0  0  0  0  0  0
    0.3570    1.2782   -2.1441 H   0  0  0  0  0  0  0  0  0  0  0  0
    0.3273    1.4319   -0.0000 C   0  0  0  0  0  0  0  0  0  0  0  0
    0.0915    2.4871    0.0000 H   0  0  0  0  0  0  0  0  0  0  0  0
    0.4779    0.7510    1.2079 C   0  0  0  0  0  0  0  0  0  0  0  0
    0.3570    1.2782    2.1441 H   0  0  0  0  0  0  0  0  0  0  0  0
    0.7801   -0.6099    1.2076 C   0  0  0  0  0  0  0  0  0  0  0  0
    0.8962   -1.1376    2.1441 H   0  0  0  0  0  0  0  0  0  0  0  0
    0.9316   -1.2900    0.0000 C   0  0  0  0  0  0  0  0  0  0  0  0
    1.1685   -2.3452   -0.0000 H   0  0  0  0  0  0  0  0  0  0  0  0
   -2.9277   -0.2899   -0.0000 O   0  0  0  0  0  0  0  0  0  0  0  0
   -2.7629   -1.2346   -0.0000 H   0  0  0  0  0  0  0  0  0  0  0  0
   -2.0404    0.0817   -0.0000 H   0  0  0  0  0  0  0  0  0  0  0  0
  1 11  1  0  0  0  0
  2  1  1  0  0  0  0
  3  1  2  0  0  0  0
  3  5  1  0  0  0  0
  4  3  1  0  0  0  0
  5  6  1  0  0  0  0
  5  7  2  0  0  0  0
  7  8  1  0  0  0  0
  9  7  1  0  0  0  0
  9 10  1  0  0  0  0
 11 12  1  0  0  0  0
 11  9  2  0  0  0  0
 13 14  1  0  0  0  0
 13 15  1  0  0  0  0
M  END
>  <SMILES>
c1ccccc1.O

>  <MoleculeName>
BenzeneWaterOHpi105

>  <Distance Scale>
1.05

>  <Energy Value>
-3.13

$$$$
/home/S66X8/2949_32UracilEthyne100.xyz
 OpenBabel06262409173D

 16 15  0  0  0  0  0  0  0  0999 V2000
   -0.0555   -0.9480    0.0100 N   0  0  0  0  0  0  0  0  0  0  0  0
   -0.0573   -1.9577    0.0551 H   0  0  0  0  0  0  0  0  0  0  0  0
   -1.3140   -0.3351   -0.0646 C   0  0  0  0  0  0  0  0  0  0  0  0
   -2.3289   -1.0079   -0.1231 O   0  0  0  0  0  0  0  0  0  0  0  0
   -1.2484    1.1161   -0.0665 C   0  0  0  0  0  0  0  0  0  0  0  0
   -2.1643    1.6753   -0.1471 H   0  0  0  0  0  0  0  0  0  0  0  0
   -0.0531    1.7314    0.0342 C   0  0  0  0  0  0  0  0  0  0  0  0
    0.0481    2.8064    0.0434 H   0  0  0  0  0  0  0  0  0  0  0  0
    1.1159    1.0276    0.1352 N   0  0  0  0  0  0  0  0  0  0  0  0
    1.9967    1.4973    0.2616 H   0  0  0  0  0  0  0  0  0  0  0  0
    1.1753   -0.3538    0.1762 C   0  0  0  0  0  0  0  0  0  0  0  0
    2.2146   -0.9665    0.3352 O   0  0  0  0  0  0  0  0  0  0  0  0
    0.7084   -0.1722    3.2871 C   0  0  0  0  0  0  0  0  0  0  0  0
    1.7042   -0.5262    3.1729 H   0  0  0  0  0  0  0  0  0  0  0  0
   -0.4362    0.2142    3.3933 C   0  0  0  0  0  0  0  0  0  0  0  0
   -1.4411    0.5429    3.4936 H   0  0  0  0  0  0  0  0  0  0  0  0
  1  2  1  0  0  0  0
  1 11  1  0  0  0  0
  3  1  1  0  0  0  0
  4  3  2  0  0  0  0
  5  3  1  0  0  0  0
  5  7  2  0  0  0  0
  6  5  1  0  0  0  0
  7  8  1  0  0  0  0
  7  9  1  0  0  0  0
  9 11  1  0  0  0  0
  9 10  1  0  0  0  0
 11 12  2  0  0  0  0
 13 15  3  0  0  0  0
 14 13  1  0  0  0  0
 15 16  1  0  0  0  0
M  END
>  <SMILES>
[nH]1c(=O)cc[nH]c1=O.C#C

>  <MoleculeName>
UracilEthyne100

>  <Distance Scale>
1.0

>  <Energy Value>
-3.74

$$$$
/home/S66X8/3069_47BenzeneBenzeneTS100.xyz
 OpenBabel06262409173D

 24 24  0  0  0  0  0  0  0  0999 V2000
    0.7292    1.1131    0.3267 C   0  0  0  0  0  0  0  0  0  0  0  0
    1.3032    2.0142    0.1592 H   0  0  0  0  0  0  0  0  0  0  0  0
    1.3751   -0.1194    0.4128 C   0  0  0  0  0  0  0  0  0  0  0  0
    2.4505   -0.1746    0.3133 H   0  0  0  0  0  0  0  0  0  0  0  0
    0.6350   -1.2806    0.6294 C   0  0  0  0  0  0  0  0  0  0  0  0
    1.1363   -2.2360    0.7002 H   0  0  0  0  0  0  0  0  0  0  0  0
   -0.7510   -1.2097    0.7579 C   0  0  0  0  0  0  0  0  0  0  0  0
   -1.3245   -2.1114    0.9242 H   0  0  0  0  0  0  0  0  0  0  0  0
   -1.3970    0.0227    0.6731 C   0  0  0  0  0  0  0  0  0  0  0  0
   -2.4724    0.0785    0.7740 H   0  0  0  0  0  0  0  0  0  0  0  0
   -0.6569    1.1843    0.4583 C   0  0  0  0  0  0  0  0  0  0  0  0
   -1.1578    2.1406    0.3951 H   0  0  0  0  0  0  0  0  0  0  0  0
    0.1532    0.1457    4.0439 C   0  0  0  0  0  0  0  0  0  0  0  0
    0.2753    0.3712    2.9935 H   0  0  0  0  0  0  0  0  0  0  0  0
   -0.9379   -0.6092    4.4713 C   0  0  0  0  0  0  0  0  0  0  0  0
   -1.6584   -0.9657    3.7476 H   0  0  0  0  0  0  0  0  0  0  0  0
   -1.0986   -0.9033    5.8242 C   0  0  0  0  0  0  0  0  0  0  0  0
   -1.9457   -1.4893    6.1545 H   0  0  0  0  0  0  0  0  0  0  0  0
   -0.1667   -0.4423    6.7527 C   0  0  0  0  0  0  0  0  0  0  0  0
   -0.2906   -0.6702    7.8027 H   0  0  0  0  0  0  0  0  0  0  0  0
    0.9249    0.3128    6.3275 C   0  0  0  0  0  0  0  0  0  0  0  0
    1.6480    0.6707    7.0478 H   0  0  0  0  0  0  0  0  0  0  0  0
    1.0837    0.6063    4.9740 C   0  0  0  0  0  0  0  0  0  0  0  0
    1.9310    1.1924    4.6439 H   0  0  0  0  0  0  0  0  0  0  0  0
  1  3  2  0  0  0  0
  1 11  1  0  0  0  0
  2  1  1  0  0  0  0
  3  5  1  0  0  0  0
  4  3  1  0  0  0  0
  5  6  1  0  0  0  0
  5  7  2  0  0  0  0
  7  8  1  0  0  0  0
  9  7  1  0  0  0  0
  9 10  1  0  0  0  0
 11  9  2  0  0  0  0
 12 11  1  0  0  0  0
 13 15  2  0  0  0  0
 13 23  1  0  0  0  0
 14 13  1  0  0  0  0
 15 17  1  0  0  0  0
 16 15  1  0  0  0  0
 17 18  1  0  0  0  0
 17 19  2  0  0  0  0
 19 20  1  0  0  0  0
 21 19  1  0  0  0  0
 21 22  1  0  0  0  0
 23 21  2  0  0  0  0
 24 23  1  0  0  0  0
M  END
>  <SMILES>
c1ccccc1.c1ccccc1

>  <MoleculeName>
BenzeneBenzeneTS100

>  <Distance Scale>
1.0

>  <Energy Value>
-2.87

$$$$
/home/S66X8/2893_25PyridinePyridinepipi100.xyz
 OpenBabel06262409173D

 22 22  0  0  0  0  0  0  0  0999 V2000
    1.5725    0.2545   -0.2565 N   0  0  0  0  0  0  0  0  0  0  0  0
    0.9694   -0.9032    0.0445 C   0  0  0  0  0  0  0  0  0  0  0  0
    1.6136   -1.7722    0.1023 H   0  0  0  0  0  0  0  0  0  0  0  0
   -0.3982   -1.0288    0.2810 C   0  0  0  0  0  0  0  0  0  0  0  0
   -0.8184   -1.9917    0.5336 H   0  0  0  0  0  0  0  0  0  0  0  0
   -1.1958    0.1066    0.1954 C   0  0  0  0  0  0  0  0  0  0  0  0
   -2.2607    0.0495    0.3734 H   0  0  0  0  0  0  0  0  0  0  0  0
   -0.5871    1.3174   -0.1201 C   0  0  0  0  0  0  0  0  0  0  0  0
   -1.1618    2.2295   -0.2005 H   0  0  0  0  0  0  0  0  0  0  0  0
    0.7885    1.3397   -0.3322 C   0  0  0  0  0  0  0  0  0  0  0  0
    1.2884    2.2688   -0.5785 H   0  0  0  0  0  0  0  0  0  0  0  0
   -0.5232   -1.5069    3.7522 N   0  0  0  0  0  0  0  0  0  0  0  0
   -1.4557   -0.5463    3.8260 C   0  0  0  0  0  0  0  0  0  0  0  0
   -2.4585   -0.8772    4.0682 H   0  0  0  0  0  0  0  0  0  0  0  0
   -1.1937    0.8048    3.6166 C   0  0  0  0  0  0  0  0  0  0  0  0
   -1.9922    1.5293    3.6949 H   0  0  0  0  0  0  0  0  0  0  0  0
    0.1058    1.1940    3.3064 C   0  0  0  0  0  0  0  0  0  0  0  0
    0.3478    2.2330    3.1305 H   0  0  0  0  0  0  0  0  0  0  0  0
    1.0853    0.2111    3.2230 C   0  0  0  0  0  0  0  0  0  0  0  0
    2.1076    0.4579    2.9746 H   0  0  0  0  0  0  0  0  0  0  0  0
    0.7228   -1.1140    3.4562 C   0  0  0  0  0  0  0  0  0  0  0  0
    1.4667   -1.8996    3.3998 H   0  0  0  0  0  0  0  0  0  0  0  0
  1  2  1  0  0  0  0
  2  3  1  0  0  0  0
  2  4  2  0  0  0  0
  4  5  1  0  0  0  0
  6  4  1  0  0  0  0
  6  7  1  0  0  0  0
  8  6  2  0  0  0  0
  9  8  1  0  0  0  0
 10  1  2  0  0  0  0
 10  8  1  0  0  0  0
 11 10  1  0  0  0  0
 12 13  1  0  0  0  0
 13 14  1  0  0  0  0
 15 16  1  0  0  0  0
 15 13  2  0  0  0  0
 17 15  1  0  0  0  0
 18 17  1  0  0  0  0
 19 17  2  0  0  0  0
 19 21  1  0  0  0  0
 20 19  1  0  0  0  0
 21 12  2  0  0  0  0
 22 21  1  0  0  0  0
M  END
>  <SMILES>
n1ccccc1.n1ccccc1

>  <MoleculeName>
PyridinePyridinepipi100

>  <Distance Scale>
1.0

>  <Energy Value>
-3.83

$$$$
/home/S66X8/2831_17UracilUracilBP110.xyz
 OpenBabel06262409173D

 24 24  0  0  0  0  0  0  0  0999 V2000
   -0.7300    0.0228    0.0009 N   0  0  0  0  0  0  0  0  0  0  0  0
    0.2984    0.0740    0.0016 H   0  0  0  0  0  0  0  0  0  0  0  0
   -1.2968   -1.2404    0.0015 C   0  0  0  0  0  0  0  0  0  0  0  0
   -0.5941   -2.2535    0.0026 O   0  0  0  0  0  0  0  0  0  0  0  0
   -2.7436   -1.2623    0.0005 C   0  0  0  0  0  0  0  0  0  0  0  0
   -3.2496   -2.2118    0.0008 H   0  0  0  0  0  0  0  0  0  0  0  0
   -3.4220   -0.0959   -0.0009 C   0  0  0  0  0  0  0  0  0  0  0  0
   -4.5009   -0.0492   -0.0017 H   0  0  0  0  0  0  0  0  0  0  0  0
   -2.7748    1.1054   -0.0014 N   0  0  0  0  0  0  0  0  0  0  0  0
   -3.2838    1.9739   -0.0025 H   0  0  0  0  0  0  0  0  0  0  0  0
   -1.3915    1.2370   -0.0005 C   0  0  0  0  0  0  0  0  0  0  0  0
   -0.8398    2.3170   -0.0010 O   0  0  0  0  0  0  0  0  0  0  0  0
    4.3302   -1.0954    0.0005 N   0  0  0  0  0  0  0  0  0  0  0  0
    4.7774   -0.1888    0.0009 H   0  0  0  0  0  0  0  0  0  0  0  0
    5.1863   -2.2100   -0.0010 C   0  0  0  0  0  0  0  0  0  0  0  0
    6.3957   -2.0583   -0.0017 O   0  0  0  0  0  0  0  0  0  0  0  0
    4.4720   -3.4722   -0.0015 C   0  0  0  0  0  0  0  0  0  0  0  0
    5.0386   -4.3872   -0.0026 H   0  0  0  0  0  0  0  0  0  0  0  0
    3.1219   -3.4760   -0.0005 C   0  0  0  0  0  0  0  0  0  0  0  0
    2.5449   -4.3890   -0.0009 H   0  0  0  0  0  0  0  0  0  0  0  0
    2.3839   -2.3251    0.0009 N   0  0  0  0  0  0  0  0  0  0  0  0
    1.3575   -2.3466    0.0016 H   0  0  0  0  0  0  0  0  0  0  0  0
    2.9566   -1.0805    0.0015 C   0  0  0  0  0  0  0  0  0  0  0  0
    2.3063   -0.0393    0.0027 O   0  0  0  0  0  0  0  0  0  0  0  0
  1  3  1  0  0  0  0
  1  2  1  0  0  0  0
  3  4  2  0  0  0  0
  5  6  1  0  0  0  0
  5  3  1  0  0  0  0
  7  5  2  0  0  0  0
  8  7  1  0  0  0  0
  9  7  1  0  0  0  0
  9 11  1  0  0  0  0
 10  9  1  0  0  0  0
 11  1  1  0  0  0  0
 12 11  2  0  0  0  0
 13 14  1  0  0  0  0
 13 23  1  0  0  0  0
 15 13  1  0  0  0  0
 16 15  2  0  0  0  0
 17 15  1  0  0  0  0
 17 19  2  0  0  0  0
 18 17  1  0  0  0  0
 19 21  1  0  0  0  0
 20 19  1  0  0  0  0
 21 23  1  0  0  0  0
 21 22  1  0  0  0  0
 23 24  2  0  0  0  0
M  END
>  <SMILES>
[nH]1c(=O)cc[nH]c1=O.[nH]1c(=O)cc[nH]c1=O

>  <MoleculeName>
UracilUracilBP110

>  <Distance Scale>
1.1

>  <Energy Value>
-16.17

$$$$
/home/S66X8/3129_54BenzeneWaterOHpi150.xyz
 OpenBabel06262409173D

 15 14  0  0  0  0  0  0  0  0999 V2000
    0.7801   -0.6099   -1.2076 C   0  0  0  0  0  0  0  0  0  0  0  0
    0.8962   -1.1376   -2.1441 H   0  0  0  0  0  0  0  0  0  0  0  0
    0.4779    0.7510   -1.2079 C   0  0  0  0  0  0  0  0  0  0  0  0
    0.3570    1.2782   -2.1441 H   0  0  0  0  0  0  0  0  0  0  0  0
    0.3273    1.4319   -0.0000 C   0  0  0  0  0  0  0  0  0  0  0  0
    0.0915    2.4871    0.0000 H   0  0  0  0  0  0  0  0  0  0  0  0
    0.4779    0.7510    1.2079 C   0  0  0  0  0  0  0  0  0  0  0  0
    0.3570    1.2782    2.1441 H   0  0  0  0  0  0  0  0  0  0  0  0
    0.7801   -0.6099    1.2076 C   0  0  0  0  0  0  0  0  0  0  0  0
    0.8962   -1.1376    2.1441 H   0  0  0  0  0  0  0  0  0  0  0  0
    0.9316   -1.2900    0.0000 C   0  0  0  0  0  0  0  0  0  0  0  0
    1.1685   -2.3452   -0.0000 H   0  0  0  0  0  0  0  0  0  0  0  0
   -4.1581   -0.4280   -0.0000 O   0  0  0  0  0  0  0  0  0  0  0  0
   -3.9933   -1.3727   -0.0000 H   0  0  0  0  0  0  0  0  0  0  0  0
   -3.2708   -0.0564   -0.0000 H   0  0  0  0  0  0  0  0  0  0  0  0
  1 11  1  0  0  0  0
  2  1  1  0  0  0  0
  3  1  2  0  0  0  0
  3  5  1  0  0  0  0
  4  3  1  0  0  0  0
  5  6  1  0  0  0  0
  5  7  2  0  0  0  0
  7  8  1  0  0  0  0
  9  7  1  0  0  0  0
  9 10  1  0  0  0  0
 11 12  1  0  0  0  0
 11  9  2  0  0  0  0
 13 14  1  0  0  0  0
 13 15  1  0  0  0  0
M  END
>  <SMILES>
c1ccccc1.O

>  <MoleculeName>
BenzeneWaterOHpi150

>  <Distance Scale>
1.5

>  <Energy Value>
-1.16

$$$$
/home/S66X8/3137_55BenzeneMeOHOHpi150.xyz
 OpenBabel06262409173D

 18 17  0  0  0  0  0  0  0  0999 V2000
    0.7597    1.0313    0.3738 C   0  0  0  0  0  0  0  0  0  0  0  0
    1.4350    1.8757    0.3747 H   0  0  0  0  0  0  0  0  0  0  0  0
    1.2666   -0.2674    0.4213 C   0  0  0  0  0  0  0  0  0  0  0  0
    2.3349   -0.4292    0.4594 H   0  0  0  0  0  0  0  0  0  0  0  0
    0.3953   -1.3560    0.4249 C   0  0  0  0  0  0  0  0  0  0  0  0
    0.7887   -2.3625    0.4630 H   0  0  0  0  0  0  0  0  0  0  0  0
   -0.9822   -1.1467    0.3813 C   0  0  0  0  0  0  0  0  0  0  0  0
   -1.6577   -1.9911    0.3851 H   0  0  0  0  0  0  0  0  0  0  0  0
   -1.4893    0.1511    0.3376 C   0  0  0  0  0  0  0  0  0  0  0  0
   -2.5579    0.3138    0.3077 H   0  0  0  0  0  0  0  0  0  0  0  0
   -0.6188    1.2403    0.3339 C   0  0  0  0  0  0  0  0  0  0  0  0
   -1.0118    2.2471    0.3044 H   0  0  0  0  0  0  0  0  0  0  0  0
   -0.0607    0.2461    4.9907 O   0  0  0  0  0  0  0  0  0  0  0  0
    0.0254    0.2960    4.0335 H   0  0  0  0  0  0  0  0  0  0  0  0
   -0.9569   -0.8115    5.2738 C   0  0  0  0  0  0  0  0  0  0  0  0
   -1.0526   -0.8683    6.3547 H   0  0  0  0  0  0  0  0  0  0  0  0
   -1.9490   -0.6398    4.8500 H   0  0  0  0  0  0  0  0  0  0  0  0
   -0.5904   -1.7746    4.9109 H   0  0  0  0  0  0  0  0  0  0  0  0
  1  2  1  0  0  0  0
  1  3  1  0  0  0  0
  3  5  2  0  0  0  0
  3  4  1  0  0  0  0
  5  6  1  0  0  0  0
  7  8  1  0  0  0  0
  7  5  1  0  0  0  0
  9  7  2  0  0  0  0
 10  9  1  0  0  0  0
 11  9  1  0  0  0  0
 11  1  2  0  0  0  0
 12 11  1  0  0  0  0
 13 15  1  0  0  0  0
 14 13  1  0  0  0  0
 15 16  1  0  0  0  0
 17 15  1  0  0  0  0
 18 15  1  0  0  0  0
M  END
>  <SMILES>
c1ccccc1.OC

>  <MoleculeName>
BenzeneMeOHOHpi150

>  <Distance Scale>
1.5

>  <Energy Value>
-1.53

$$$$
/home/S66X8/2979_36NeopentaneNeopentane090.xyz
 OpenBabel06262409173D

 34 32  0  0  0  0  0  0  0  0999 V2000
    0.3825   -0.0706    0.7669 C   0  0  0  0  0  0  0  0  0  0  0  0
   -1.0406    0.3968    1.0609 C   0  0  0  0  0  0  0  0  0  0  0  0
   -1.7716   -0.2815    0.6183 H   0  0  0  0  0  0  0  0  0  0  0  0
   -1.2247    0.4357    2.1355 H   0  0  0  0  0  0  0  0  0  0  0  0
   -1.2141    1.3937    0.6531 H   0  0  0  0  0  0  0  0  0  0  0  0
    0.5908   -1.4668    1.3480 C   0  0  0  0  0  0  0  0  0  0  0  0
    1.6029   -1.8229    1.1501 H   0  0  0  0  0  0  0  0  0  0  0  0
    0.4390   -1.4667    2.4283 H   0  0  0  0  0  0  0  0  0  0  0  0
   -0.1099   -2.1787    0.9093 H   0  0  0  0  0  0  0  0  0  0  0  0
    1.3783    0.8984    1.3991 C   0  0  0  0  0  0  0  0  0  0  0  0
    2.4044    0.5854    1.2007 H   0  0  0  0  0  0  0  0  0  0  0  0
    1.2438    0.9460    2.4807 H   0  0  0  0  0  0  0  0  0  0  0  0
    1.2484    1.9050    0.9990 H   0  0  0  0  0  0  0  0  0  0  0  0
    0.6020   -0.1110   -0.7431 C   0  0  0  0  0  0  0  0  0  0  0  0
    0.4592    0.8770   -1.1829 H   0  0  0  0  0  0  0  0  0  0  0  0
    1.6137   -0.4435   -0.9797 H   0  0  0  0  0  0  0  0  0  0  0  0
   -0.0995   -0.7975   -1.2192 H   0  0  0  0  0  0  0  0  0  0  0  0
   -0.3355    0.0620    5.6953 C   0  0  0  0  0  0  0  0  0  0  0  0
    1.0873   -0.4070    5.4019 C   0  0  0  0  0  0  0  0  0  0  0  0
    1.2717   -0.4463    4.3274 H   0  0  0  0  0  0  0  0  0  0  0  0
    1.8187    0.2707    5.8446 H   0  0  0  0  0  0  0  0  0  0  0  0
    1.2596   -1.4040    5.8100 H   0  0  0  0  0  0  0  0  0  0  0  0
   -0.5419    1.4586    5.1145 C   0  0  0  0  0  0  0  0  0  0  0  0
   -1.5539    1.8156    5.3113 H   0  0  0  0  0  0  0  0  0  0  0  0
    0.1590    2.1696    5.5542 H   0  0  0  0  0  0  0  0  0  0  0  0
   -0.3888    1.4588    4.0343 H   0  0  0  0  0  0  0  0  0  0  0  0
   -0.5558    0.1022    7.2052 C   0  0  0  0  0  0  0  0  0  0  0  0
   -1.5670    0.4365    7.4412 H   0  0  0  0  0  0  0  0  0  0  0  0
    0.1467    0.7871    7.6820 H   0  0  0  0  0  0  0  0  0  0  0  0
   -0.4153   -0.8863    7.6446 H   0  0  0  0  0  0  0  0  0  0  0  0
   -1.3320   -0.9058    5.0622 C   0  0  0  0  0  0  0  0  0  0  0  0
   -1.2031   -1.9127    5.4617 H   0  0  0  0  0  0  0  0  0  0  0  0
   -2.3579   -0.5920    5.2605 H   0  0  0  0  0  0  0  0  0  0  0  0
   -1.1973   -0.9527    3.9806 H   0  0  0  0  0  0  0  0  0  0  0  0
  1  2  1  0  0  0  0
  1  6  1  0  0  0  0
  1 10  1  0  0  0  0
  2  4  1  0  0  0  0
  3  2  1  0  0  0  0
  5  2  1  0  0  0  0
  6  8  1  0  0  0  0
  7  6  1  0  0  0  0
  9  6  1  0  0  0  0
 10 12  1  0  0  0  0
 11 10  1  0  0  0  0
 13 10  1  0  0  0  0
 14  1  1  0  0  0  0
 15 14  1  0  0  0  0
 16 14  1  0  0  0  0
 17 14  1  0  0  0  0
 18 27  1  0  0  0  0
 19 18  1  0  0  0  0
 19 22  1  0  0  0  0
 19 21  1  0  0  0  0
 20 19  1  0  0  0  0
 23 24  1  0  0  0  0
 23 25  1  0  0  0  0
 23 18  1  0  0  0  0
 26 23  1  0  0  0  0
 27 28  1  0  0  0  0
 27 30  1  0  0  0  0
 27 29  1  0  0  0  0
 31 33  1  0  0  0  0
 31 32  1  0  0  0  0
 31 18  1  0  0  0  0
 34 31  1  0  0  0  0
M  END
>  <SMILES>
C(C)(C)(C)C.C(C)(C)(C)C

>  <MoleculeName>
NeopentaneNeopentane090

>  <Distance Scale>
0.9

>  <Energy Value>
-1.45

$$$$
/home/S66X8/2769_09MeNH2MeOH150.xyz
 OpenBabel06262409173D

 13 11  0  0  0  0  0  0  0  0999 V2000
   -0.8935   -0.0438   -0.0430 N   0  0  0  0  0  0  0  0  0  0  0  0
    0.0969   -0.2561   -0.0711 H   0  0  0  0  0  0  0  0  0  0  0  0
   -1.3684   -0.9334    0.0338 H   0  0  0  0  0  0  0  0  0  0  0  0
   -1.1758    0.7579    1.1452 C   0  0  0  0  0  0  0  0  0  0  0  0
   -2.2416    0.9722    1.1950 H   0  0  0  0  0  0  0  0  0  0  0  0
   -0.8808    0.3042    2.0972 H   0  0  0  0  0  0  0  0  0  0  0  0
   -0.6630    1.7143    1.0608 H   0  0  0  0  0  0  0  0  0  0  0  0
    3.4722    0.0658    0.0815 O   0  0  0  0  0  0  0  0  0  0  0  0
    3.7542    0.4357   -0.7583 H   0  0  0  0  0  0  0  0  0  0  0  0
    3.8581    0.9774    1.1010 C   0  0  0  0  0  0  0  0  0  0  0  0
    3.5349    0.5477    2.0440 H   0  0  0  0  0  0  0  0  0  0  0  0
    4.9391    1.1164    1.1400 H   0  0  0  0  0  0  0  0  0  0  0  0
    3.3796    1.9510    0.9858 H   0  0  0  0  0  0  0  0  0  0  0  0
  1  3  1  0  0  0  0
  1  4  1  0  0  0  0
  2  1  1  0  0  0  0
  4  5  1  0  0  0  0
  4  6  1  0  0  0  0
  7  4  1  0  0  0  0
  8 10  1  0  0  0  0
  9  8  1  0  0  0  0
 10 12  1  0  0  0  0
 10 11  1  0  0  0  0
 13 10  1  0  0  0  0
M  END
>  <SMILES>
NC.OC

>  <MoleculeName>
MeNH2MeOH150

>  <Distance Scale>
1.5

>  <Energy Value>
-1.1

$$$$
/home/S66X8/2964_34PentanePentane095.xyz
 OpenBabel06262409173D

 34 32  0  0  0  0  0  0  0  0999 V2000
   -2.5333   -0.2949    0.7131 C   0  0  0  0  0  0  0  0  0  0  0  0
   -2.5636   -0.9771   -0.1364 H   0  0  0  0  0  0  0  0  0  0  0  0
   -2.5670   -0.8959    1.6217 H   0  0  0  0  0  0  0  0  0  0  0  0
   -3.4344    0.3160    0.6841 H   0  0  0  0  0  0  0  0  0  0  0  0
   -1.2719    0.5577    0.6744 C   0  0  0  0  0  0  0  0  0  0  0  0
   -1.2710    1.2566    1.5143 H   0  0  0  0  0  0  0  0  0  0  0  0
   -1.2666    1.1679   -0.2318 H   0  0  0  0  0  0  0  0  0  0  0  0
   -0.0001   -0.2784    0.7196 C   0  0  0  0  0  0  0  0  0  0  0  0
   -0.0002   -0.8872    1.6286 H   0  0  0  0  0  0  0  0  0  0  0  0
   -0.0004   -0.9807   -0.1194 H   0  0  0  0  0  0  0  0  0  0  0  0
    1.2719    0.5574    0.6741 C   0  0  0  0  0  0  0  0  0  0  0  0
    1.2710    1.2566    1.5137 H   0  0  0  0  0  0  0  0  0  0  0  0
    1.2666    1.1672   -0.2324 H   0  0  0  0  0  0  0  0  0  0  0  0
    2.5334   -0.2949    0.7133 C   0  0  0  0  0  0  0  0  0  0  0  0
    2.5639   -0.9778   -0.1358 H   0  0  0  0  0  0  0  0  0  0  0  0
    3.4343    0.3163    0.6836 H   0  0  0  0  0  0  0  0  0  0  0  0
    2.5676   -0.8952    1.6223 H   0  0  0  0  0  0  0  0  0  0  0  0
    2.5336    0.2976    4.3846 C   0  0  0  0  0  0  0  0  0  0  0  0
    2.5681    0.8974    3.4752 H   0  0  0  0  0  0  0  0  0  0  0  0
    2.5641    0.9808    5.2333 H   0  0  0  0  0  0  0  0  0  0  0  0
    3.4342   -0.3139    4.4148 H   0  0  0  0  0  0  0  0  0  0  0  0
    1.2717   -0.5542    4.4239 C   0  0  0  0  0  0  0  0  0  0  0  0
    1.2663   -1.1640    5.3304 H   0  0  0  0  0  0  0  0  0  0  0  0
    1.2706   -1.2536    3.5843 H   0  0  0  0  0  0  0  0  0  0  0  0
   -0.0000    0.2819    4.3783 C   0  0  0  0  0  0  0  0  0  0  0  0
   -0.0002    0.9842    5.2172 H   0  0  0  0  0  0  0  0  0  0  0  0
    0.0000    0.8906    3.4692 H   0  0  0  0  0  0  0  0  0  0  0  0
   -1.2718   -0.5543    4.4235 C   0  0  0  0  0  0  0  0  0  0  0  0
   -1.2664   -1.1644    5.3298 H   0  0  0  0  0  0  0  0  0  0  0  0
   -1.2707   -1.2533    3.5837 H   0  0  0  0  0  0  0  0  0  0  0  0
   -2.5335    0.2978    4.3846 C   0  0  0  0  0  0  0  0  0  0  0  0
   -2.5677    0.8983    3.4757 H   0  0  0  0  0  0  0  0  0  0  0  0
   -3.4343   -0.3135    4.4141 H   0  0  0  0  0  0  0  0  0  0  0  0
   -2.5641    0.9803    5.2338 H   0  0  0  0  0  0  0  0  0  0  0  0
  1  3  1  0  0  0  0
  2  1  1  0  0  0  0
  4  1  1  0  0  0  0
  5  1  1  0  0  0  0
  5  8  1  0  0  0  0
  5  6  1  0  0  0  0
  7  5  1  0  0  0  0
  8  9  1  0  0  0  0
 10  8  1  0  0  0  0
 11 14  1  0  0  0  0
 11  8  1  0  0  0  0
 11 12  1  0  0  0  0
 13 11  1  0  0  0  0
 14 17  1  0  0  0  0
 15 14  1  0  0  0  0
 16 14  1  0  0  0  0
 18 21  1  0  0  0  0
 18 22  1  0  0  0  0
 18 20  1  0  0  0  0
 19 18  1  0  0  0  0
 22 23  1  0  0  0  0
 24 22  1  0  0  0  0
 25 28  1  0  0  0  0
 25 22  1  0  0  0  0
 25 26  1  0  0  0  0
 27 25  1  0  0  0  0
 28 29  1  0  0  0  0
 30 28  1  0  0  0  0
 31 33  1  0  0  0  0
 31 28  1  0  0  0  0
 31 34  1  0  0  0  0
 32 31  1  0  0  0  0
M  END
>  <SMILES>
CCCCC.CCCCC

>  <MoleculeName>
PentanePentane095

>  <Distance Scale>
0.95

>  <Energy Value>
-3.62

$$$$
/home/S66X8/3198_63BenzeneAcOH105.xyz
 OpenBabel06262409173D

 20 19  0  0  0  0  0  0  0  0999 V2000
    0.6068    1.3304    0.3164 C   0  0  0  0  0  0  0  0  0  0  0  0
    1.2465    2.2023    0.3304 H   0  0  0  0  0  0  0  0  0  0  0  0
    1.1181    0.0872    0.6851 C   0  0  0  0  0  0  0  0  0  0  0  0
    2.1501   -0.0039    0.9938 H   0  0  0  0  0  0  0  0  0  0  0  0
    0.2929   -1.0361    0.6691 C   0  0  0  0  0  0  0  0  0  0  0  0
    0.6885   -2.0010    0.9554 H   0  0  0  0  0  0  0  0  0  0  0  0
   -1.0428   -0.9167    0.2882 C   0  0  0  0  0  0  0  0  0  0  0  0
   -1.6827   -1.7885    0.2793 H   0  0  0  0  0  0  0  0  0  0  0  0
   -1.5536    0.3273   -0.0799 C   0  0  0  0  0  0  0  0  0  0  0  0
   -2.5892    0.4203   -0.3773 H   0  0  0  0  0  0  0  0  0  0  0  0
   -0.7280    1.4508   -0.0668 C   0  0  0  0  0  0  0  0  0  0  0  0
   -1.1236    2.4157   -0.3539 H   0  0  0  0  0  0  0  0  0  0  0  0
    0.4012   -0.2455    4.1824 C   0  0  0  0  0  0  0  0  0  0  0  0
    1.5967   -0.0816    4.2590 O   0  0  0  0  0  0  0  0  0  0  0  0
   -0.1783   -1.4569    4.3819 O   0  0  0  0  0  0  0  0  0  0  0  0
    0.5561   -2.0580    4.5749 H   0  0  0  0  0  0  0  0  0  0  0  0
   -0.6207    0.7984    3.8618 C   0  0  0  0  0  0  0  0  0  0  0  0
   -0.1424    1.7694    3.8149 H   0  0  0  0  0  0  0  0  0  0  0  0
   -1.0735    0.5652    2.8991 H   0  0  0  0  0  0  0  0  0  0  0  0
   -1.4056    0.7929    4.6143 H   0  0  0  0  0  0  0  0  0  0  0  0
  1  2  1  0  0  0  0
  1  3  1  0  0  0  0
  3  4  1  0  0  0  0
  5  3  2  0  0  0  0
  5  6  1  0  0  0  0
  7  5  1  0  0  0  0
  8  7  1  0  0  0  0
  9 11  1  0  0  0  0
  9  7  2  0  0  0  0
 10  9  1  0  0  0  0
 11  1  2  0  0  0  0
 12 11  1  0  0  0  0
 13 14  2  0  0  0  0
 13 15  1  0  0  0  0
 15 16  1  0  0  0  0
 17 13  1  0  0  0  0
 17 20  1  0  0  0  0
 18 17  1  0  0  0  0
 19 17  1  0  0  0  0
M  END
>  <SMILES>
c1ccccc1.C(=O)(O)C

>  <MoleculeName>
BenzeneAcOH105

>  <Distance Scale>
1.05

>  <Energy Value>
-3.65

$$$$
/home/S66X8/2782_11MeNH2Peptide105.xyz
 OpenBabel06262409173D

 19 17  0  0  0  0  0  0  0  0999 V2000
   -0.5697    0.8144    0.1011 N   0  0  0  0  0  0  0  0  0  0  0  0
    0.1309    0.5614   -0.5876 H   0  0  0  0  0  0  0  0  0  0  0  0
   -1.4613    0.5269   -0.2804 H   0  0  0  0  0  0  0  0  0  0  0  0
   -0.3055    0.0657    1.3288 C   0  0  0  0  0  0  0  0  0  0  0  0
   -1.0571    0.3143    2.0760 H   0  0  0  0  0  0  0  0  0  0  0  0
   -0.2880   -1.0223    1.2148 H   0  0  0  0  0  0  0  0  0  0  0  0
    0.6605    0.3685    1.7302 H   0  0  0  0  0  0  0  0  0  0  0  0
    2.4047    2.6796   -0.1696 C   0  0  0  0  0  0  0  0  0  0  0  0
    2.5293    3.0908   -1.1686 H   0  0  0  0  0  0  0  0  0  0  0  0
    2.9113    3.3206    0.5482 H   0  0  0  0  0  0  0  0  0  0  0  0
    1.3383    2.6531    0.0488 H   0  0  0  0  0  0  0  0  0  0  0  0
    2.9167    1.2618   -0.1673 C   0  0  0  0  0  0  0  0  0  0  0  0
    2.4567    0.3961   -0.9065 O   0  0  0  0  0  0  0  0  0  0  0  0
    3.9032    0.9888    0.7250 N   0  0  0  0  0  0  0  0  0  0  0  0
    4.3030    1.7437    1.2504 H   0  0  0  0  0  0  0  0  0  0  0  0
    4.4916   -0.3308    0.8025 C   0  0  0  0  0  0  0  0  0  0  0  0
    3.7035   -1.0722    0.7095 H   0  0  0  0  0  0  0  0  0  0  0  0
    5.2129   -0.5028    0.0040 H   0  0  0  0  0  0  0  0  0  0  0  0
    4.9863   -0.4467    1.7625 H   0  0  0  0  0  0  0  0  0  0  0  0
  1  4  1  0  0  0  0
  2  1  1  0  0  0  0
  3  1  1  0  0  0  0
  4  7  1  0  0  0  0
  4  5  1  0  0  0  0
  6  4  1  0  0  0  0
  8 12  1  0  0  0  0
  8 11  1  0  0  0  0
  8 10  1  0  0  0  0
  9  8  1  0  0  0  0
 12 14  1  0  0  0  0
 13 12  2  0  0  0  0
 14 16  1  0  0  0  0
 14 15  1  0  0  0  0
 16 19  1  0  0  0  0
 17 16  1  0  0  0  0
 18 16  1  0  0  0  0
M  END
>  <SMILES>
NC.CC(=O)NC

>  <MoleculeName>
MeNH2Peptide105

>  <Distance Scale>
1.05

>  <Energy Value>
-5.24

$$$$
/home/S66X8/2914_27BenzenePyridinepipi200.xyz
 OpenBabel06262409173D

 23 23  0  0  0  0  0  0  0  0999 V2000
    0.8187    0.8642    0.1883 C   0  0  0  0  0  0  0  0  0  0  0  0
    1.4661    1.7167    0.3447 H   0  0  0  0  0  0  0  0  0  0  0  0
    1.3690   -0.3905   -0.0667 C   0  0  0  0  0  0  0  0  0  0  0  0
    2.4430   -0.5119   -0.1106 H   0  0  0  0  0  0  0  0  0  0  0  0
    0.5344   -1.4885   -0.2719 C   0  0  0  0  0  0  0  0  0  0  0  0
    0.9608   -2.4616   -0.4755 H   0  0  0  0  0  0  0  0  0  0  0  0
   -0.8491   -1.3305   -0.2199 C   0  0  0  0  0  0  0  0  0  0  0  0
   -1.4971   -2.1819   -0.3796 H   0  0  0  0  0  0  0  0  0  0  0  0
   -1.3995   -0.0760    0.0404 C   0  0  0  0  0  0  0  0  0  0  0  0
   -2.4727    0.0449    0.0934 H   0  0  0  0  0  0  0  0  0  0  0  0
   -0.5653    1.0214    0.2423 C   0  0  0  0  0  0  0  0  0  0  0  0
   -0.9926    1.9937    0.4463 H   0  0  0  0  0  0  0  0  0  0  0  0
   -3.3387    0.6224    6.9406 N   0  0  0  0  0  0  0  0  0  0  0  0
   -2.7238    1.7800    7.2206 C   0  0  0  0  0  0  0  0  0  0  0  0
   -3.3714    2.6332    7.3832 H   0  0  0  0  0  0  0  0  0  0  0  0
   -1.3416    1.9209    7.3108 C   0  0  0  0  0  0  0  0  0  0  0  0
   -0.9097    2.8845    7.5420 H   0  0  0  0  0  0  0  0  0  0  0  0
   -0.5406    0.8039    7.0966 C   0  0  0  0  0  0  0  0  0  0  0  0
    0.5369    0.8743    7.1514 H   0  0  0  0  0  0  0  0  0  0  0  0
   -1.1612   -0.4047    6.8029 C   0  0  0  0  0  0  0  0  0  0  0  0
   -0.5854   -1.3004    6.6189 H   0  0  0  0  0  0  0  0  0  0  0  0
   -2.5517   -0.4428    6.7375 C   0  0  0  0  0  0  0  0  0  0  0  0
   -3.0605   -1.3712    6.5087 H   0  0  0  0  0  0  0  0  0  0  0  0
  1 11  1  0  0  0  0
  1  2  1  0  0  0  0
  3  1  2  0  0  0  0
  4  3  1  0  0  0  0
  5  7  2  0  0  0  0
  5  3  1  0  0  0  0
  6  5  1  0  0  0  0
  7  9  1  0  0  0  0
  8  7  1  0  0  0  0
  9 10  1  0  0  0  0
  9 11  2  0  0  0  0
 11 12  1  0  0  0  0
 13 14  1  0  0  0  0
 14 16  2  0  0  0  0
 14 15  1  0  0  0  0
 16 17  1  0  0  0  0
 18 19  1  0  0  0  0
 18 16  1  0  0  0  0
 20 18  2  0  0  0  0
 21 20  1  0  0  0  0
 22 20  1  0  0  0  0
 22 13  2  0  0  0  0
 23 22  1  0  0  0  0
M  END
>  <SMILES>
c1ccccc1.n1ccccc1

>  <MoleculeName>
BenzenePyridinepipi200

>  <Distance Scale>
2.0

>  <Energy Value>
-0.15

$$$$
/home/S66X8/2884_24BenzeneBenzenepipi095.xyz
 OpenBabel06262409173D

 24 24  0  0  0  0  0  0  0  0999 V2000
    0.7126    1.1210    0.0605 C   0  0  0  0  0  0  0  0  0  0  0  0
    1.3578    1.9864    0.1277 H   0  0  0  0  0  0  0  0  0  0  0  0
    1.2582   -0.1593    0.1242 C   0  0  0  0  0  0  0  0  0  0  0  0
    2.3250   -0.2871    0.2467 H   0  0  0  0  0  0  0  0  0  0  0  0
    0.4269   -1.2745    0.0427 C   0  0  0  0  0  0  0  0  0  0  0  0
    0.8504   -2.2684    0.0947 H   0  0  0  0  0  0  0  0  0  0  0  0
   -0.9496   -1.1101   -0.1003 C   0  0  0  0  0  0  0  0  0  0  0  0
   -1.5945   -1.9763   -0.1637 H   0  0  0  0  0  0  0  0  0  0  0  0
   -1.4955    0.1711   -0.1615 C   0  0  0  0  0  0  0  0  0  0  0  0
   -2.5638    0.2992   -0.2737 H   0  0  0  0  0  0  0  0  0  0  0  0
   -0.6638    1.2866   -0.0834 C   0  0  0  0  0  0  0  0  0  0  0  0
   -1.0869    2.2810   -0.1329 H   0  0  0  0  0  0  0  0  0  0  0  0
    1.8888    1.1107    3.4272 C   0  0  0  0  0  0  0  0  0  0  0  0
    2.5336    1.9769    3.4910 H   0  0  0  0  0  0  0  0  0  0  0  0
    2.4348   -0.1705    3.4888 C   0  0  0  0  0  0  0  0  0  0  0  0
    3.5030   -0.2986    3.6015 H   0  0  0  0  0  0  0  0  0  0  0  0
    1.6031   -1.2861    3.4101 C   0  0  0  0  0  0  0  0  0  0  0  0
    2.0262   -2.2804    3.4598 H   0  0  0  0  0  0  0  0  0  0  0  0
    0.2267   -1.1204    3.2654 C   0  0  0  0  0  0  0  0  0  0  0  0
   -0.4184   -1.9858    3.1978 H   0  0  0  0  0  0  0  0  0  0  0  0
   -0.3189    0.1598    3.2014 C   0  0  0  0  0  0  0  0  0  0  0  0
   -1.3855    0.2876    3.0782 H   0  0  0  0  0  0  0  0  0  0  0  0
    0.5124    1.2751    3.2835 C   0  0  0  0  0  0  0  0  0  0  0  0
    0.0889    2.2690    3.2311 H   0  0  0  0  0  0  0  0  0  0  0  0
  1  3  1  0  0  0  0
  1  2  1  0  0  0  0
  3  4  1  0  0  0  0
  5  6  1  0  0  0  0
  5  3  2  0  0  0  0
  7  5  1  0  0  0  0
  8  7  1  0  0  0  0
  9  7  2  0  0  0  0
  9 11  1  0  0  0  0
 10  9  1  0  0  0  0
 11  1  2  0  0  0  0
 12 11  1  0  0  0  0
 13 15  1  0  0  0  0
 13 14  1  0  0  0  0
 15 16  1  0  0  0  0
 17 18  1  0  0  0  0
 17 15  2  0  0  0  0
 19 17  1  0  0  0  0
 20 19  1  0  0  0  0
 21 19  2  0  0  0  0
 21 23  1  0  0  0  0
 22 21  1  0  0  0  0
 23 13  2  0  0  0  0
 24 23  1  0  0  0  0
M  END
>  <SMILES>
c1ccccc1.c1ccccc1

>  <MoleculeName>
BenzeneBenzenepipi095

>  <Distance Scale>
0.95

>  <Energy Value>
-2.07

$$$$
/home/S66X8/2815_15PeptidePeptide110.xyz
 OpenBabel06262409173D

 24 22  0  0  0  0  0  0  0  0999 V2000
   -0.7015   -0.2906    2.4069 C   0  0  0  0  0  0  0  0  0  0  0  0
   -1.1833    0.3956    3.0989 H   0  0  0  0  0  0  0  0  0  0  0  0
    0.3496   -0.0303    2.3078 H   0  0  0  0  0  0  0  0  0  0  0  0
   -0.7941   -1.2916    2.8240 H   0  0  0  0  0  0  0  0  0  0  0  0
   -1.4485   -0.2449    1.0918 C   0  0  0  0  0  0  0  0  0  0  0  0
   -2.6605   -0.4285    1.0343 O   0  0  0  0  0  0  0  0  0  0  0  0
   -0.6701    0.0059    0.0098 N   0  0  0  0  0  0  0  0  0  0  0  0
    0.3267    0.1226    0.1416 H   0  0  0  0  0  0  0  0  0  0  0  0
   -1.2271    0.0898   -1.3200 C   0  0  0  0  0  0  0  0  0  0  0  0
   -2.2920   -0.1065   -1.2409 H   0  0  0  0  0  0  0  0  0  0  0  0
   -1.0778    1.0799   -1.7485 H   0  0  0  0  0  0  0  0  0  0  0  0
   -0.7766   -0.6480   -1.9834 H   0  0  0  0  0  0  0  0  0  0  0  0
    2.2600   -2.3650    0.7035 C   0  0  0  0  0  0  0  0  0  0  0  0
    2.8182   -3.2750    0.4976 H   0  0  0  0  0  0  0  0  0  0  0  0
    1.3313   -2.3716    0.1391 H   0  0  0  0  0  0  0  0  0  0  0  0
    2.0008   -2.3416    1.7604 H   0  0  0  0  0  0  0  0  0  0  0  0
    3.0276   -1.1106    0.3672 C   0  0  0  0  0  0  0  0  0  0  0  0
    2.4824   -0.0092    0.3103 O   0  0  0  0  0  0  0  0  0  0  0  0
    4.3544   -1.2794    0.1535 N   0  0  0  0  0  0  0  0  0  0  0  0
    4.7307   -2.2067    0.2302 H   0  0  0  0  0  0  0  0  0  0  0  0
    5.2416   -0.1730   -0.1355 C   0  0  0  0  0  0  0  0  0  0  0  0
    4.6274    0.7178   -0.2153 H   0  0  0  0  0  0  0  0  0  0  0  0
    5.9690   -0.0335    0.6619 H   0  0  0  0  0  0  0  0  0  0  0  0
    5.7666   -0.3330   -1.0746 H   0  0  0  0  0  0  0  0  0  0  0  0
  1  4  1  0  0  0  0
  1  2  1  0  0  0  0
  3  1  1  0  0  0  0
  5  1  1  0  0  0  0
  6  5  2  0  0  0  0
  7  8  1  0  0  0  0
  7  5  1  0  0  0  0
  9 10  1  0  0  0  0
  9  7  1  0  0  0  0
 11  9  1  0  0  0  0
 12  9  1  0  0  0  0
 13 16  1  0  0  0  0
 14 13  1  0  0  0  0
 15 13  1  0  0  0  0
 17 13  1  0  0  0  0
 18 17  2  0  0  0  0
 19 20  1  0  0  0  0
 19 17  1  0  0  0  0
 21 19  1  0  0  0  0
 21 23  1  0  0  0  0
 22 21  1  0  0  0  0
 24 21  1  0  0  0  0
M  END
>  <SMILES>
CC(=O)NC.CC(=O)NC

>  <MoleculeName>
PeptidePeptide110

>  <Distance Scale>
1.1

>  <Energy Value>
-8.1

$$$$
/home/S66X8/2905_26UracilUracilpipi150.xyz
 OpenBabel06262409173D

 24 24  0  0  0  0  0  0  0  0999 V2000
    1.3769    0.8397    0.7346 N   0  0  0  0  0  0  0  0  0  0  0  0
    1.0518    1.3862    1.5234 H   0  0  0  0  0  0  0  0  0  0  0  0
    1.3090    1.4575   -0.5207 C   0  0  0  0  0  0  0  0  0  0  0  0
    0.9206    2.6111   -0.6260 O   0  0  0  0  0  0  0  0  0  0  0  0
    2.0114   -1.2132   -0.0981 N   0  0  0  0  0  0  0  0  0  0  0  0
    1.7273    0.9908   -2.6120 H   0  0  0  0  0  0  0  0  0  0  0  0
    2.0257   -0.6972   -1.3644 C   0  0  0  0  0  0  0  0  0  0  0  0
    2.2975   -1.3911   -2.1456 H   0  0  0  0  0  0  0  0  0  0  0  0
    1.7145    0.5919   -1.6125 C   0  0  0  0  0  0  0  0  0  0  0  0
    2.1295   -2.2015    0.0568 H   0  0  0  0  0  0  0  0  0  0  0  0
    1.6459   -0.4852    1.0187 C   0  0  0  0  0  0  0  0  0  0  0  0
    1.5611   -0.9718    2.1298 O   0  0  0  0  0  0  0  0  0  0  0  0
   -2.7373   -1.0746    0.7346 N   0  0  0  0  0  0  0  0  0  0  0  0
   -2.4122   -1.6211    1.5234 H   0  0  0  0  0  0  0  0  0  0  0  0
   -2.6693   -1.6924   -0.5207 C   0  0  0  0  0  0  0  0  0  0  0  0
   -2.2809   -2.8459   -0.6260 O   0  0  0  0  0  0  0  0  0  0  0  0
   -3.3718    0.9783   -0.0981 N   0  0  0  0  0  0  0  0  0  0  0  0
   -3.0876   -1.2257   -2.6120 H   0  0  0  0  0  0  0  0  0  0  0  0
   -3.3861    0.4623   -1.3644 C   0  0  0  0  0  0  0  0  0  0  0  0
   -3.6579    1.1562   -2.1456 H   0  0  0  0  0  0  0  0  0  0  0  0
   -3.0749   -0.8268   -1.6125 C   0  0  0  0  0  0  0  0  0  0  0  0
   -3.4898    1.9667    0.0568 H   0  0  0  0  0  0  0  0  0  0  0  0
   -3.0063    0.2503    1.0187 C   0  0  0  0  0  0  0  0  0  0  0  0
   -2.9215    0.7370    2.1298 O   0  0  0  0  0  0  0  0  0  0  0  0
  1 11  1  0  0  0  0
  1  2  1  0  0  0  0
  3  1  1  0  0  0  0
  4  3  2  0  0  0  0
  5 10  1  0  0  0  0
  5 11  1  0  0  0  0
  6  9  1  0  0  0  0
  7  5  1  0  0  0  0
  8  7  1  0  0  0  0
  9  7  2  0  0  0  0
  9  3  1  0  0  0  0
 11 12  2  0  0  0  0
 13 23  1  0  0  0  0
 13 14  1  0  0  0  0
 15 13  1  0  0  0  0
 16 15  2  0  0  0  0
 17 22  1  0  0  0  0
 17 23  1  0  0  0  0
 18 21  1  0  0  0  0
 19 17  1  0  0  0  0
 20 19  1  0  0  0  0
 21 19  2  0  0  0  0
 21 15  1  0  0  0  0
 23 24  2  0  0  0  0
M  END
>  <SMILES>
[nH]1c(=O)cc[nH]c1=O.[nH]1c(=O)cc[nH]c1=O

>  <MoleculeName>
UracilUracilpipi150

>  <Distance Scale>
1.5

>  <Energy Value>
-3.1

$$$$
/home/S66X8/2994_37CyclopentaneNeopentane200.xyz
 OpenBabel06262409173D

 32 31  0  0  0  0  0  0  0  0999 V2000
    0.7999   -1.0221    0.6877 C   0  0  0  0  0  0  0  0  0  0  0  0
    0.8536   -1.1221   -0.3980 H   0  0  0  0  0  0  0  0  0  0  0  0
    1.4914   -1.7442    1.1197 H   0  0  0  0  0  0  0  0  0  0  0  0
    1.1169    0.4250    1.0997 C   0  0  0  0  0  0  0  0  0  0  0  0
    1.8381    0.8901    0.4305 H   0  0  0  0  0  0  0  0  0  0  0  0
    1.5556    0.4398    2.0971 H   0  0  0  0  0  0  0  0  0  0  0  0
   -0.2446    1.1657    1.1030 C   0  0  0  0  0  0  0  0  0  0  0  0
   -0.2581    2.0009    0.4053 H   0  0  0  0  0  0  0  0  0  0  0  0
   -0.4488    1.5770    2.0910 H   0  0  0  0  0  0  0  0  0  0  0  0
   -1.2987    0.1038    0.7393 C   0  0  0  0  0  0  0  0  0  0  0  0
   -1.4736    0.1052   -0.3380 H   0  0  0  0  0  0  0  0  0  0  0  0
   -2.2567    0.2780    1.2272 H   0  0  0  0  0  0  0  0  0  0  0  0
   -0.6469   -1.2201    1.1363 C   0  0  0  0  0  0  0  0  0  0  0  0
   -1.1244   -2.0876    0.6830 H   0  0  0  0  0  0  0  0  0  0  0  0
   -0.6860   -1.3453    2.2202 H   0  0  0  0  0  0  0  0  0  0  0  0
    0.1108    0.2129    8.3474 C   0  0  0  0  0  0  0  0  0  0  0  0
    0.0145    0.0608    9.8631 C   0  0  0  0  0  0  0  0  0  0  0  0
    1.0070    0.0454   10.3154 H   0  0  0  0  0  0  0  0  0  0  0  0
   -0.5445    0.8887   10.3015 H   0  0  0  0  0  0  0  0  0  0  0  0
   -0.4927   -0.8678   10.1284 H   0  0  0  0  0  0  0  0  0  0  0  0
    0.8249    1.5198    8.0118 C   0  0  0  0  0  0  0  0  0  0  0  0
    0.9064    1.6533    6.9321 H   0  0  0  0  0  0  0  0  0  0  0  0
    0.2814    2.3745    8.4173 H   0  0  0  0  0  0  0  0  0  0  0  0
    1.8325    1.5305    8.4300 H   0  0  0  0  0  0  0  0  0  0  0  0
   -1.2942    0.2328    7.7501 C   0  0  0  0  0  0  0  0  0  0  0  0
   -1.2573    0.3499    6.6663 H   0  0  0  0  0  0  0  0  0  0  0  0
   -1.8765    1.0602    8.1585 H   0  0  0  0  0  0  0  0  0  0  0  0
   -1.8241   -0.6950    7.9714 H   0  0  0  0  0  0  0  0  0  0  0  0
    0.8987   -0.9606    7.7701 C   0  0  0  0  0  0  0  0  0  0  0  0
    0.4035   -1.9075    7.9903 H   0  0  0  0  0  0  0  0  0  0  0  0
    0.9936   -0.8734    6.6870 H   0  0  0  0  0  0  0  0  0  0  0  0
    1.9034   -0.9980    8.1938 H   0  0  0  0  0  0  0  0  0  0  0  0
  1  4  1  0  0  0  0
  1  3  1  0  0  0  0
  1 13  1  0  0  0  0
  2  1  1  0  0  0  0
  4  7  1  0  0  0  0
  4  6  1  0  0  0  0
  5  4  1  0  0  0  0
  7  9  1  0  0  0  0
  8  7  1  0  0  0  0
 10  7  1  0  0  0  0
 10 13  1  0  0  0  0
 10 12  1  0  0  0  0
 11 10  1  0  0  0  0
 13 15  1  0  0  0  0
 14 13  1  0  0  0  0
 16 17  1  0  0  0  0
 17 20  1  0  0  0  0
 17 19  1  0  0  0  0
 17 18  1  0  0  0  0
 21 16  1  0  0  0  0
 21 23  1  0  0  0  0
 21 24  1  0  0  0  0
 22 21  1  0  0  0  0
 25 28  1  0  0  0  0
 25 27  1  0  0  0  0
 25 16  1  0  0  0  0
 26 25  1  0  0  0  0
 29 30  1  0  0  0  0
 29 32  1  0  0  0  0
 29 16  1  0  0  0  0
 31 29  1  0  0  0  0
M  END
>  <SMILES>
C1CCCC1.C(C)(C)(C)C

>  <MoleculeName>
CyclopentaneNeopentane200

>  <Distance Scale>
2.0

>  <Energy Value>
-0.19

$$$$
/home/S66X8/3132_55BenzeneMeOHOHpi095.xyz
 OpenBabel06262409173D

 18 17  0  0  0  0  0  0  0  0999 V2000
    0.7597    1.0313    0.3738 C   0  0  0  0  0  0  0  0  0  0  0  0
    1.4350    1.8757    0.3747 H   0  0  0  0  0  0  0  0  0  0  0  0
    1.2666   -0.2674    0.4213 C   0  0  0  0  0  0  0  0  0  0  0  0
    2.3349   -0.4292    0.4594 H   0  0  0  0  0  0  0  0  0  0  0  0
    0.3953   -1.3560    0.4249 C   0  0  0  0  0  0  0  0  0  0  0  0
    0.7887   -2.3625    0.4630 H   0  0  0  0  0  0  0  0  0  0  0  0
   -0.9822   -1.1467    0.3813 C   0  0  0  0  0  0  0  0  0  0  0  0
   -1.6577   -1.9911    0.3851 H   0  0  0  0  0  0  0  0  0  0  0  0
   -1.4893    0.1511    0.3376 C   0  0  0  0  0  0  0  0  0  0  0  0
   -2.5579    0.3138    0.3077 H   0  0  0  0  0  0  0  0  0  0  0  0
   -0.6188    1.2403    0.3339 C   0  0  0  0  0  0  0  0  0  0  0  0
   -1.0118    2.2471    0.3044 H   0  0  0  0  0  0  0  0  0  0  0  0
    0.0572    0.3119    3.5620 O   0  0  0  0  0  0  0  0  0  0  0  0
    0.1433    0.3617    2.6048 H   0  0  0  0  0  0  0  0  0  0  0  0
   -0.8390   -0.7458    3.8450 C   0  0  0  0  0  0  0  0  0  0  0  0
   -0.9347   -0.8025    4.9260 H   0  0  0  0  0  0  0  0  0  0  0  0
   -1.8311   -0.5741    3.4212 H   0  0  0  0  0  0  0  0  0  0  0  0
   -0.4725   -1.7088    3.4821 H   0  0  0  0  0  0  0  0  0  0  0  0
  1  2  1  0  0  0  0
  1  3  1  0  0  0  0
  3  5  2  0  0  0  0
  3  4  1  0  0  0  0
  5  6  1  0  0  0  0
  7  8  1  0  0  0  0
  7  5  1  0  0  0  0
  9  7  2  0  0  0  0
 10  9  1  0  0  0  0
 11  9  1  0  0  0  0
 11  1  2  0  0  0  0
 12 11  1  0  0  0  0
 13 15  1  0  0  0  0
 14 13  1  0  0  0  0
 15 16  1  0  0  0  0
 17 15  1  0  0  0  0
 18 15  1  0  0  0  0
M  END
>  <SMILES>
c1ccccc1.OC

>  <MoleculeName>
BenzeneMeOHOHpi095

>  <Distance Scale>
0.95

>  <Energy Value>
-4.05

$$$$
/home/S66X8/2820_16PeptideWater095.xyz
 OpenBabel06262409173D

 15 13  0  0  0  0  0  0  0  0999 V2000
   -0.7243   -0.7049    2.2839 C   0  0  0  0  0  0  0  0  0  0  0  0
    0.3353   -0.6299    2.0532 H   0  0  0  0  0  0  0  0  0  0  0  0
   -0.9517   -1.7120    2.6257 H   0  0  0  0  0  0  0  0  0  0  0  0
   -0.9696   -0.0221    3.0938 H   0  0  0  0  0  0  0  0  0  0  0  0
   -1.6149   -0.3874    1.1041 C   0  0  0  0  0  0  0  0  0  0  0  0
   -2.8373   -0.4150    1.1941 O   0  0  0  0  0  0  0  0  0  0  0  0
   -0.9534   -0.0764   -0.0408 N   0  0  0  0  0  0  0  0  0  0  0  0
    0.0538   -0.0756   -0.0366 H   0  0  0  0  0  0  0  0  0  0  0  0
   -1.6581    0.2501   -1.2586 C   0  0  0  0  0  0  0  0  0  0  0  0
   -2.7204    0.1769   -1.0467 H   0  0  0  0  0  0  0  0  0  0  0  0
   -1.4303    1.2630   -1.5881 H   0  0  0  0  0  0  0  0  0  0  0  0
   -1.4056   -0.4443   -2.0586 H   0  0  0  0  0  0  0  0  0  0  0  0
    2.0274   -0.0590   -0.1507 O   0  0  0  0  0  0  0  0  0  0  0  0
    2.5923   -0.7720   -0.4559 H   0  0  0  0  0  0  0  0  0  0  0  0
    2.6071    0.7052   -0.1268 H   0  0  0  0  0  0  0  0  0  0  0  0
  1  3  1  0  0  0  0
  1  4  1  0  0  0  0
  2  1  1  0  0  0  0
  5  6  2  0  0  0  0
  5  1  1  0  0  0  0
  7  8  1  0  0  0  0
  7  5  1  0  0  0  0
  9 10  1  0  0  0  0
  9  7  1  0  0  0  0
 11  9  1  0  0  0  0
 12  9  1  0  0  0  0
 13 15  1  0  0  0  0
 14 13  1  0  0  0  0
M  END
>  <SMILES>
CC(=O)NC.O

>  <MoleculeName>
PeptideWater095

>  <Distance Scale>
0.95

>  <Energy Value>
-5.06

$$$$
/home/S66X8/2930_29PyridineUracilpipi200.xyz
 OpenBabel06262409173D

 23 23  0  0  0  0  0  0  0  0999 V2000
    1.2108    0.0287    0.3297 N   0  0  0  0  0  0  0  0  0  0  0  0
    0.6119   -1.1584    0.1535 C   0  0  0  0  0  0  0  0  0  0  0  0
    1.2515   -2.0295    0.2193 H   0  0  0  0  0  0  0  0  0  0  0  0
   -0.7513   -1.3086   -0.0888 C   0  0  0  0  0  0  0  0  0  0  0  0
   -1.1704   -2.2969   -0.2134 H   0  0  0  0  0  0  0  0  0  0  0  0
   -1.5479   -0.1699   -0.1565 C   0  0  0  0  0  0  0  0  0  0  0  0
   -2.6110   -0.2460   -0.3388 H   0  0  0  0  0  0  0  0  0  0  0  0
   -0.9436    1.0706    0.0198 C   0  0  0  0  0  0  0  0  0  0  0  0
   -1.5188    1.9845   -0.0116 H   0  0  0  0  0  0  0  0  0  0  0  0
    0.4277    1.1161    0.2573 C   0  0  0  0  0  0  0  0  0  0  0  0
    0.9247    2.0681    0.3975 H   0  0  0  0  0  0  0  0  0  0  0  0
   -0.4212   -0.1167    6.5705 N   0  0  0  0  0  0  0  0  0  0  0  0
   -1.3161   -0.5486    6.3859 H   0  0  0  0  0  0  0  0  0  0  0  0
   -0.4209    1.2811    6.6635 C   0  0  0  0  0  0  0  0  0  0  0  0
   -1.4608    1.9093    6.5487 O   0  0  0  0  0  0  0  0  0  0  0  0
    0.8986    1.8402    6.8911 C   0  0  0  0  0  0  0  0  0  0  0  0
    0.9999    2.9074    6.9869 H   0  0  0  0  0  0  0  0  0  0  0  0
    1.9684    1.0215    6.9626 C   0  0  0  0  0  0  0  0  0  0  0  0
    2.9723    1.3901    7.1110 H   0  0  0  0  0  0  0  0  0  0  0  0
    1.8504   -0.3358    6.8500 N   0  0  0  0  0  0  0  0  0  0  0  0
    2.6638   -0.9280    6.8419 H   0  0  0  0  0  0  0  0  0  0  0  0
    0.6499   -0.9831    6.6237 C   0  0  0  0  0  0  0  0  0  0  0  0
    0.5578   -2.1885    6.4901 O   0  0  0  0  0  0  0  0  0  0  0  0
  2  3  1  0  0  0  0
  2  1  2  0  0  0  0
  4  2  1  0  0  0  0
  5  4  1  0  0  0  0
  6  4  2  0  0  0  0
  6  8  1  0  0  0  0
  7  6  1  0  0  0  0
  8 10  2  0  0  0  0
  9  8  1  0  0  0  0
 10  1  1  0  0  0  0
 10 11  1  0  0  0  0
 12 22  1  0  0  0  0
 12 14  1  0  0  0  0
 13 12  1  0  0  0  0
 14 16  1  0  0  0  0
 15 14  2  0  0  0  0
 16 18  2  0  0  0  0
 16 17  1  0  0  0  0
 18 19  1  0  0  0  0
 20 18  1  0  0  0  0
 21 20  1  0  0  0  0
 22 20  1  0  0  0  0
 23 22  2  0  0  0  0
M  END
>  <SMILES>
n1ccccc1.[nH]1c(=O)cc[nH]c1=O

>  <MoleculeName>
PyridineUracilpipi200

>  <Distance Scale>
2.0

>  <Energy Value>
-0.53

$$$$
/home/S66X8/3168_59EthyneWaterCHO125.xyz
 OpenBabel06262409173D

  7  5  0  0  0  0  0  0  0  0999 V2000
   -1.0069   -0.0306   -0.0248 C   0  0  0  0  0  0  0  0  0  0  0  0
    0.0590   -0.0609   -0.0494 H   0  0  0  0  0  0  0  0  0  0  0  0
   -2.2187    0.0032    0.0026 C   0  0  0  0  0  0  0  0  0  0  0  0
   -3.2793    0.0335    0.0272 H   0  0  0  0  0  0  0  0  0  0  0  0
    2.8461   -0.1679   -0.1329 O   0  0  0  0  0  0  0  0  0  0  0  0
    3.4164   -0.7577    0.3641 H   0  0  0  0  0  0  0  0  0  0  0  0
    3.4181    0.1831   -0.8183 H   0  0  0  0  0  0  0  0  0  0  0  0
  1  3  3  0  0  0  0
  2  1  1  0  0  0  0
  3  4  1  0  0  0  0
  5  6  1  0  0  0  0
  7  5  1  0  0  0  0
M  END
>  <SMILES>
C#C.O

>  <MoleculeName>
EthyneWaterCHO125

>  <Distance Scale>
1.25

>  <Energy Value>
-1.98

$$$$
/home/S66X8/3169_59EthyneWaterCHO150.xyz
 OpenBabel06262409173D

  7  5  0  0  0  0  0  0  0  0999 V2000
   -1.0069   -0.0306   -0.0248 C   0  0  0  0  0  0  0  0  0  0  0  0
    0.0590   -0.0609   -0.0494 H   0  0  0  0  0  0  0  0  0  0  0  0
   -2.2187    0.0032    0.0026 C   0  0  0  0  0  0  0  0  0  0  0  0
   -3.2793    0.0335    0.0272 H   0  0  0  0  0  0  0  0  0  0  0  0
    3.4035   -0.1893   -0.1496 O   0  0  0  0  0  0  0  0  0  0  0  0
    3.9738   -0.7791    0.3474 H   0  0  0  0  0  0  0  0  0  0  0  0
    3.9755    0.1617   -0.8350 H   0  0  0  0  0  0  0  0  0  0  0  0
  1  3  3  0  0  0  0
  2  1  1  0  0  0  0
  3  4  1  0  0  0  0
  5  6  1  0  0  0  0
  7  5  1  0  0  0  0
M  END
>  <SMILES>
C#C.O

>  <MoleculeName>
EthyneWaterCHO150

>  <Distance Scale>
1.5

>  <Energy Value>
-1.17

$$$$
/home/S66X8/2902_26UracilUracilpipi105.xyz
 OpenBabel06262409173D

 24 24  0  0  0  0  0  0  0  0999 V2000
    1.3769    0.8397    0.7346 N   0  0  0  0  0  0  0  0  0  0  0  0
    1.0518    1.3862    1.5234 H   0  0  0  0  0  0  0  0  0  0  0  0
    1.3090    1.4575   -0.5207 C   0  0  0  0  0  0  0  0  0  0  0  0
    0.9206    2.6111   -0.6260 O   0  0  0  0  0  0  0  0  0  0  0  0
    2.0114   -1.2132   -0.0981 N   0  0  0  0  0  0  0  0  0  0  0  0
    1.7273    0.9908   -2.6120 H   0  0  0  0  0  0  0  0  0  0  0  0
    2.0257   -0.6972   -1.3644 C   0  0  0  0  0  0  0  0  0  0  0  0
    2.2975   -1.3911   -2.1456 H   0  0  0  0  0  0  0  0  0  0  0  0
    1.7145    0.5919   -1.6125 C   0  0  0  0  0  0  0  0  0  0  0  0
    2.1295   -2.2015    0.0568 H   0  0  0  0  0  0  0  0  0  0  0  0
    1.6459   -0.4852    1.0187 C   0  0  0  0  0  0  0  0  0  0  0  0
    1.5611   -0.9718    2.1298 O   0  0  0  0  0  0  0  0  0  0  0  0
   -1.5140   -0.8634    0.7346 N   0  0  0  0  0  0  0  0  0  0  0  0
   -1.1890   -1.4099    1.5234 H   0  0  0  0  0  0  0  0  0  0  0  0
   -1.4461   -1.4812   -0.5207 C   0  0  0  0  0  0  0  0  0  0  0  0
   -1.0577   -2.6348   -0.6260 O   0  0  0  0  0  0  0  0  0  0  0  0
   -2.1486    1.1895   -0.0981 N   0  0  0  0  0  0  0  0  0  0  0  0
   -1.8644   -1.0145   -2.6120 H   0  0  0  0  0  0  0  0  0  0  0  0
   -2.1629    0.6735   -1.3644 C   0  0  0  0  0  0  0  0  0  0  0  0
   -2.4347    1.3674   -2.1456 H   0  0  0  0  0  0  0  0  0  0  0  0
   -1.8517   -0.6156   -1.6125 C   0  0  0  0  0  0  0  0  0  0  0  0
   -2.2666    2.1778    0.0568 H   0  0  0  0  0  0  0  0  0  0  0  0
   -1.7831    0.4615    1.0187 C   0  0  0  0  0  0  0  0  0  0  0  0
   -1.6983    0.9481    2.1298 O   0  0  0  0  0  0  0  0  0  0  0  0
  1 11  1  0  0  0  0
  1  2  1  0  0  0  0
  3  1  1  0  0  0  0
  4  3  2  0  0  0  0
  5 10  1  0  0  0  0
  5 11  1  0  0  0  0
  6  9  1  0  0  0  0
  7  5  1  0  0  0  0
  8  7  1  0  0  0  0
  9  7  2  0  0  0  0
  9  3  1  0  0  0  0
 11 12  2  0  0  0  0
 13 23  1  0  0  0  0
 13 14  1  0  0  0  0
 15 13  1  0  0  0  0
 16 15  2  0  0  0  0
 17 22  1  0  0  0  0
 17 23  1  0  0  0  0
 18 21  1  0  0  0  0
 19 17  1  0  0  0  0
 20 19  1  0  0  0  0
 21 19  2  0  0  0  0
 21 15  1  0  0  0  0
 23 24  2  0  0  0  0
M  END
>  <SMILES>
[nH]1c(=O)cc[nH]c1=O.[nH]1c(=O)cc[nH]c1=O

>  <MoleculeName>
UracilUracilpipi105

>  <Distance Scale>
1.05

>  <Energy Value>
-9.43

$$$$
/home/S66X8/2928_29PyridineUracilpipi125.xyz
 OpenBabel06262409173D

 23 23  0  0  0  0  0  0  0  0999 V2000
    1.2108    0.0287    0.3297 N   0  0  0  0  0  0  0  0  0  0  0  0
    0.6119   -1.1584    0.1535 C   0  0  0  0  0  0  0  0  0  0  0  0
    1.2515   -2.0295    0.2193 H   0  0  0  0  0  0  0  0  0  0  0  0
   -0.7513   -1.3086   -0.0888 C   0  0  0  0  0  0  0  0  0  0  0  0
   -1.1704   -2.2969   -0.2134 H   0  0  0  0  0  0  0  0  0  0  0  0
   -1.5479   -0.1699   -0.1565 C   0  0  0  0  0  0  0  0  0  0  0  0
   -2.6110   -0.2460   -0.3388 H   0  0  0  0  0  0  0  0  0  0  0  0
   -0.9436    1.0706    0.0198 C   0  0  0  0  0  0  0  0  0  0  0  0
   -1.5188    1.9845   -0.0116 H   0  0  0  0  0  0  0  0  0  0  0  0
    0.4277    1.1161    0.2573 C   0  0  0  0  0  0  0  0  0  0  0  0
    0.9247    2.0681    0.3975 H   0  0  0  0  0  0  0  0  0  0  0  0
   -0.6392   -0.2416    4.1268 N   0  0  0  0  0  0  0  0  0  0  0  0
   -1.5341   -0.6734    3.9422 H   0  0  0  0  0  0  0  0  0  0  0  0
   -0.6389    1.1562    4.2198 C   0  0  0  0  0  0  0  0  0  0  0  0
   -1.6788    1.7844    4.1050 O   0  0  0  0  0  0  0  0  0  0  0  0
    0.6806    1.7153    4.4474 C   0  0  0  0  0  0  0  0  0  0  0  0
    0.7819    2.7825    4.5433 H   0  0  0  0  0  0  0  0  0  0  0  0
    1.7504    0.8966    4.5189 C   0  0  0  0  0  0  0  0  0  0  0  0
    2.7543    1.2653    4.6674 H   0  0  0  0  0  0  0  0  0  0  0  0
    1.6324   -0.4607    4.4064 N   0  0  0  0  0  0  0  0  0  0  0  0
    2.4458   -1.0529    4.3982 H   0  0  0  0  0  0  0  0  0  0  0  0
    0.4319   -1.1079    4.1800 C   0  0  0  0  0  0  0  0  0  0  0  0
    0.3398   -2.3133    4.0464 O   0  0  0  0  0  0  0  0  0  0  0  0
  2  3  1  0  0  0  0
  2  1  2  0  0  0  0
  4  2  1  0  0  0  0
  5  4  1  0  0  0  0
  6  4  2  0  0  0  0
  6  8  1  0  0  0  0
  7  6  1  0  0  0  0
  8 10  2  0  0  0  0
  9  8  1  0  0  0  0
 10  1  1  0  0  0  0
 10 11  1  0  0  0  0
 12 22  1  0  0  0  0
 12 14  1  0  0  0  0
 13 12  1  0  0  0  0
 14 16  1  0  0  0  0
 15 14  2  0  0  0  0
 16 18  2  0  0  0  0
 16 17  1  0  0  0  0
 18 19  1  0  0  0  0
 20 18  1  0  0  0  0
 21 20  1  0  0  0  0
 22 20  1  0  0  0  0
 23 22  2  0  0  0  0
M  END
>  <SMILES>
n1ccccc1.[nH]1c(=O)cc[nH]c1=O

>  <MoleculeName>
PyridineUracilpipi125

>  <Distance Scale>
1.25

>  <Energy Value>
-3.87

$$$$
/home/S66X8/2929_29PyridineUracilpipi150.xyz
 OpenBabel06262409173D

 23 23  0  0  0  0  0  0  0  0999 V2000
    1.2108    0.0287    0.3297 N   0  0  0  0  0  0  0  0  0  0  0  0
    0.6119   -1.1584    0.1535 C   0  0  0  0  0  0  0  0  0  0  0  0
    1.2515   -2.0295    0.2193 H   0  0  0  0  0  0  0  0  0  0  0  0
   -0.7513   -1.3086   -0.0888 C   0  0  0  0  0  0  0  0  0  0  0  0
   -1.1704   -2.2969   -0.2134 H   0  0  0  0  0  0  0  0  0  0  0  0
   -1.5479   -0.1699   -0.1565 C   0  0  0  0  0  0  0  0  0  0  0  0
   -2.6110   -0.2460   -0.3388 H   0  0  0  0  0  0  0  0  0  0  0  0
   -0.9436    1.0706    0.0198 C   0  0  0  0  0  0  0  0  0  0  0  0
   -1.5188    1.9845   -0.0116 H   0  0  0  0  0  0  0  0  0  0  0  0
    0.4277    1.1161    0.2573 C   0  0  0  0  0  0  0  0  0  0  0  0
    0.9247    2.0681    0.3975 H   0  0  0  0  0  0  0  0  0  0  0  0
   -0.5656   -0.1994    4.9520 N   0  0  0  0  0  0  0  0  0  0  0  0
   -1.4605   -0.6313    4.7674 H   0  0  0  0  0  0  0  0  0  0  0  0
   -0.5653    1.1984    5.0450 C   0  0  0  0  0  0  0  0  0  0  0  0
   -1.6052    1.8266    4.9301 O   0  0  0  0  0  0  0  0  0  0  0  0
    0.7542    1.7575    5.2725 C   0  0  0  0  0  0  0  0  0  0  0  0
    0.8555    2.8247    5.3684 H   0  0  0  0  0  0  0  0  0  0  0  0
    1.8240    0.9388    5.3441 C   0  0  0  0  0  0  0  0  0  0  0  0
    2.8279    1.3074    5.4925 H   0  0  0  0  0  0  0  0  0  0  0  0
    1.7060   -0.4185    5.2315 N   0  0  0  0  0  0  0  0  0  0  0  0
    2.5194   -1.0107    5.2233 H   0  0  0  0  0  0  0  0  0  0  0  0
    0.5055   -1.0658    5.0051 C   0  0  0  0  0  0  0  0  0  0  0  0
    0.4134   -2.2712    4.8715 O   0  0  0  0  0  0  0  0  0  0  0  0
  2  3  1  0  0  0  0
  2  1  2  0  0  0  0
  4  2  1  0  0  0  0
  5  4  1  0  0  0  0
  6  4  2  0  0  0  0
  6  8  1  0  0  0  0
  7  6  1  0  0  0  0
  8 10  2  0  0  0  0
  9  8  1  0  0  0  0
 10  1  1  0  0  0  0
 10 11  1  0  0  0  0
 12 22  1  0  0  0  0
 12 14  1  0  0  0  0
 13 12  1  0  0  0  0
 14 16  1  0  0  0  0
 15 14  2  0  0  0  0
 16 18  2  0  0  0  0
 16 17  1  0  0  0  0
 18 19  1  0  0  0  0
 20 18  1  0  0  0  0
 21 20  1  0  0  0  0
 22 20  1  0  0  0  0
 23 22  2  0  0  0  0
M  END
>  <SMILES>
n1ccccc1.[nH]1c(=O)cc[nH]c1=O

>  <MoleculeName>
PyridineUracilpipi150

>  <Distance Scale>
1.5

>  <Energy Value>
-1.78

$$$$
/home/S66X8/2789_12MeNH2Water100.xyz
 OpenBabel06262409173D

 10  8  0  0  0  0  0  0  0  0999 V2000
   -0.5335   -0.2796    0.1070 N   0  0  0  0  0  0  0  0  0  0  0  0
   -0.6292   -1.2484    0.3828 H   0  0  0  0  0  0  0  0  0  0  0  0
   -1.1226   -0.1662   -0.7078 H   0  0  0  0  0  0  0  0  0  0  0  0
   -1.0169    0.5885    1.1874 C   0  0  0  0  0  0  0  0  0  0  0  0
   -0.9128    1.6256    0.8795 H   0  0  0  0  0  0  0  0  0  0  0  0
   -2.0547    0.4151    1.4785 H   0  0  0  0  0  0  0  0  0  0  0  0
   -0.3850    0.4488    2.0606 H   0  0  0  0  0  0  0  0  0  0  0  0
    2.1289    0.9311    0.2108 O   0  0  0  0  0  0  0  0  0  0  0  0
    1.3114    0.4349    0.0376 H   0  0  0  0  0  0  0  0  0  0  0  0
    2.7108    0.6726   -0.5050 H   0  0  0  0  0  0  0  0  0  0  0  0
  1  2  1  0  0  0  0
  1  4  1  0  0  0  0
  3  1  1  0  0  0  0
  4  6  1  0  0  0  0
  4  7  1  0  0  0  0
  5  4  1  0  0  0  0
  9  8  1  0  0  0  0
 10  8  1  0  0  0  0
M  END
>  <SMILES>
NC.O

>  <MoleculeName>
MeNH2Water100

>  <Distance Scale>
1.0

>  <Energy Value>
-7.25

$$$$
/home/S66X8/3207_64PeptideEthene110.xyz
 OpenBabel06262409173D

 18 16  0  0  0  0  0  0  0  0999 V2000
    1.6297    0.5030    0.2701 C   0  0  0  0  0  0  0  0  0  0  0  0
    1.6416    1.4592   -0.2481 H   0  0  0  0  0  0  0  0  0  0  0  0
    2.3153   -0.1836   -0.2176 H   0  0  0  0  0  0  0  0  0  0  0  0
    1.9697    0.6494    1.2940 H   0  0  0  0  0  0  0  0  0  0  0  0
    0.2618   -0.1329    0.3146 C   0  0  0  0  0  0  0  0  0  0  0  0
    0.0993   -1.3096    0.6118 O   0  0  0  0  0  0  0  0  0  0  0  0
   -0.7735    0.7025    0.0221 N   0  0  0  0  0  0  0  0  0  0  0  0
   -0.5690    1.6666   -0.1658 H   0  0  0  0  0  0  0  0  0  0  0  0
   -2.1500    0.2660    0.0951 C   0  0  0  0  0  0  0  0  0  0  0  0
   -2.1447   -0.8194    0.1009 H   0  0  0  0  0  0  0  0  0  0  0  0
   -2.6405    0.6158    1.0036 H   0  0  0  0  0  0  0  0  0  0  0  0
   -2.7077    0.6208   -0.7683 H   0  0  0  0  0  0  0  0  0  0  0  0
   -0.0005    0.5152    4.0752 C   0  0  0  0  0  0  0  0  0  0  0  0
   -0.0054    1.2574    4.8611 H   0  0  0  0  0  0  0  0  0  0  0  0
   -0.6491    0.6830    3.2265 H   0  0  0  0  0  0  0  0  0  0  0  0
    0.7680   -0.5718    4.1450 C   0  0  0  0  0  0  0  0  0  0  0  0
    1.4133   -0.7436    4.9951 H   0  0  0  0  0  0  0  0  0  0  0  0
    0.7629   -1.3070    3.3527 H   0  0  0  0  0  0  0  0  0  0  0  0
  1  5  1  0  0  0  0
  1  4  1  0  0  0  0
  2  1  1  0  0  0  0
  3  1  1  0  0  0  0
  5  6  2  0  0  0  0
  7  9  1  0  0  0  0
  7  5  1  0  0  0  0
  8  7  1  0  0  0  0
  9 10  1  0  0  0  0
  9 11  1  0  0  0  0
 12  9  1  0  0  0  0
 13 16  2  0  0  0  0
 13 14  1  0  0  0  0
 15 13  1  0  0  0  0
 16 17  1  0  0  0  0
 18 16  1  0  0  0  0
M  END
>  <SMILES>
CC(=O)NC.C=C

>  <MoleculeName>
PeptideEthene110

>  <Distance Scale>
1.1

>  <Energy Value>
-2.63

$$$$
/home/S66X8/3144_56BenzeneMeNH2NHpi125.xyz
 OpenBabel06262409173D

 19 18  0  0  0  0  0  0  0  0999 V2000
    0.6923    1.0883    0.3248 C   0  0  0  0  0  0  0  0  0  0  0  0
    1.2819    1.9919    0.2525 H   0  0  0  0  0  0  0  0  0  0  0  0
    1.3182   -0.1569    0.2869 C   0  0  0  0  0  0  0  0  0  0  0  0
    2.3931   -0.2195    0.1884 H   0  0  0  0  0  0  0  0  0  0  0  0
    0.5580   -1.3220    0.3814 C   0  0  0  0  0  0  0  0  0  0  0  0
    1.0439   -2.2876    0.3576 H   0  0  0  0  0  0  0  0  0  0  0  0
   -0.8276   -1.2414    0.5117 C   0  0  0  0  0  0  0  0  0  0  0  0
   -1.4167   -2.1453    0.5853 H   0  0  0  0  0  0  0  0  0  0  0  0
   -1.4534    0.0037    0.5484 C   0  0  0  0  0  0  0  0  0  0  0  0
   -2.5282    0.0657    0.6498 H   0  0  0  0  0  0  0  0  0  0  0  0
   -0.6935    1.1684    0.4562 C   0  0  0  0  0  0  0  0  0  0  0  0
   -1.1787    2.1344    0.4857 H   0  0  0  0  0  0  0  0  0  0  0  0
    0.2009   -0.2914    4.6146 N   0  0  0  0  0  0  0  0  0  0  0  0
    0.3355   -0.2473    3.6116 H   0  0  0  0  0  0  0  0  0  0  0  0
    0.3424    0.6538    4.9471 H   0  0  0  0  0  0  0  0  0  0  0  0
   -1.1752   -0.6978    4.8921 C   0  0  0  0  0  0  0  0  0  0  0  0
   -1.3331   -0.7263    5.9686 H   0  0  0  0  0  0  0  0  0  0  0  0
   -1.9465   -0.0574    4.4519 H   0  0  0  0  0  0  0  0  0  0  0  0
   -1.3299   -1.7073    4.5164 H   0  0  0  0  0  0  0  0  0  0  0  0
  1 11  1  0  0  0  0
  2  1  1  0  0  0  0
  3  1  2  0  0  0  0
  3  5  1  0  0  0  0
  4  3  1  0  0  0  0
  5  7  2  0  0  0  0
  6  5  1  0  0  0  0
  7  9  1  0  0  0  0
  7  8  1  0  0  0  0
  9 10  1  0  0  0  0
 11 12  1  0  0  0  0
 11  9  2  0  0  0  0
 13 16  1  0  0  0  0
 13 15  1  0  0  0  0
 14 13  1  0  0  0  0
 16 17  1  0  0  0  0
 18 16  1  0  0  0  0
 19 16  1  0  0  0  0
M  END
>  <SMILES>
c1ccccc1.NC

>  <MoleculeName>
BenzeneMeNH2NHpi125

>  <Distance Scale>
1.25

>  <Energy Value>
-1.95

$$$$
/home/S66X8/3192_62PentaneAcNH2125.xyz
 OpenBabel06262409173D

 26 24  0  0  0  0  0  0  0  0999 V2000
   -2.5878   -0.3231    0.4695 C   0  0  0  0  0  0  0  0  0  0  0  0
   -2.6104   -0.8764   -0.4696 H   0  0  0  0  0  0  0  0  0  0  0  0
   -2.6597   -1.0519    1.2777 H   0  0  0  0  0  0  0  0  0  0  0  0
   -3.4760    0.3056    0.5090 H   0  0  0  0  0  0  0  0  0  0  0  0
   -1.3096    0.4974    0.5851 C   0  0  0  0  0  0  0  0  0  0  0  0
   -1.3173    1.0833    1.5063 H   0  0  0  0  0  0  0  0  0  0  0  0
   -1.2624    1.2156   -0.2368 H   0  0  0  0  0  0  0  0  0  0  0  0
   -0.0568   -0.3683    0.5584 C   0  0  0  0  0  0  0  0  0  0  0  0
   -0.0862   -1.0734    1.3959 H   0  0  0  0  0  0  0  0  0  0  0  0
   -0.0538   -0.9768   -0.3515 H   0  0  0  0  0  0  0  0  0  0  0  0
    1.2316    0.4401    0.6320 C   0  0  0  0  0  0  0  0  0  0  0  0
    1.2133    1.0536    1.5346 H   0  0  0  0  0  0  0  0  0  0  0  0
    1.2663    1.1314   -0.2131 H   0  0  0  0  0  0  0  0  0  0  0  0
    2.4726   -0.4431    0.6192 C   0  0  0  0  0  0  0  0  0  0  0  0
    2.5207   -1.0353   -0.2949 H   0  0  0  0  0  0  0  0  0  0  0  0
    3.3877    0.1441    0.6839 H   0  0  0  0  0  0  0  0  0  0  0  0
    2.4593   -1.1394    1.4586 H   0  0  0  0  0  0  0  0  0  0  0  0
    0.0572    0.2334    4.8245 C   0  0  0  0  0  0  0  0  0  0  0  0
    0.0841    1.4185    4.5327 O   0  0  0  0  0  0  0  0  0  0  0  0
    1.1898   -0.5184    4.9273 N   0  0  0  0  0  0  0  0  0  0  0  0
    2.0607   -0.0959    4.6587 H   0  0  0  0  0  0  0  0  0  0  0  0
    1.1509   -1.5103    5.0587 H   0  0  0  0  0  0  0  0  0  0  0  0
   -1.2330   -0.5055    5.0890 C   0  0  0  0  0  0  0  0  0  0  0  0
   -1.0858   -1.4662    5.5761 H   0  0  0  0  0  0  0  0  0  0  0  0
   -1.7392   -0.6638    4.1381 H   0  0  0  0  0  0  0  0  0  0  0  0
   -1.8709    0.1217    5.7042 H   0  0  0  0  0  0  0  0  0  0  0  0
  1  4  1  0  0  0  0
  1  5  1  0  0  0  0
  1  3  1  0  0  0  0
  2  1  1  0  0  0  0
  5  6  1  0  0  0  0
  7  5  1  0  0  0  0
  8  5  1  0  0  0  0
  8 11  1  0  0  0  0
  8  9  1  0  0  0  0
 10  8  1  0  0  0  0
 11 12  1  0  0  0  0
 13 11  1  0  0  0  0
 14 11  1  0  0  0  0
 14 16  1  0  0  0  0
 14 17  1  0  0  0  0
 15 14  1  0  0  0  0
 18 20  1  0  0  0  0
 18 23  1  0  0  0  0
 19 18  2  0  0  0  0
 20 22  1  0  0  0  0
 21 20  1  0  0  0  0
 23 24  1  0  0  0  0
 23 26  1  0  0  0  0
 25 23  1  0  0  0  0
M  END
>  <SMILES>
CCCCC.C(=O)(N)C

>  <MoleculeName>
PentaneAcNH2125

>  <Distance Scale>
1.25

>  <Energy Value>
-2.12

$$$$
/home/S66X8/2992_37CyclopentaneNeopentane125.xyz
 OpenBabel06262409173D

 32 31  0  0  0  0  0  0  0  0999 V2000
    0.7999   -1.0221    0.6877 C   0  0  0  0  0  0  0  0  0  0  0  0
    0.8536   -1.1221   -0.3980 H   0  0  0  0  0  0  0  0  0  0  0  0
    1.4914   -1.7442    1.1197 H   0  0  0  0  0  0  0  0  0  0  0  0
    1.1169    0.4250    1.0997 C   0  0  0  0  0  0  0  0  0  0  0  0
    1.8381    0.8901    0.4305 H   0  0  0  0  0  0  0  0  0  0  0  0
    1.5556    0.4398    2.0971 H   0  0  0  0  0  0  0  0  0  0  0  0
   -0.2446    1.1657    1.1030 C   0  0  0  0  0  0  0  0  0  0  0  0
   -0.2581    2.0009    0.4053 H   0  0  0  0  0  0  0  0  0  0  0  0
   -0.4488    1.5770    2.0910 H   0  0  0  0  0  0  0  0  0  0  0  0
   -1.2987    0.1038    0.7393 C   0  0  0  0  0  0  0  0  0  0  0  0
   -1.4736    0.1052   -0.3380 H   0  0  0  0  0  0  0  0  0  0  0  0
   -2.2567    0.2780    1.2272 H   0  0  0  0  0  0  0  0  0  0  0  0
   -0.6469   -1.2201    1.1363 C   0  0  0  0  0  0  0  0  0  0  0  0
   -1.1244   -2.0876    0.6830 H   0  0  0  0  0  0  0  0  0  0  0  0
   -0.6860   -1.3453    2.2202 H   0  0  0  0  0  0  0  0  0  0  0  0
    0.0665    0.1266    6.3605 C   0  0  0  0  0  0  0  0  0  0  0  0
   -0.0299   -0.0255    7.8761 C   0  0  0  0  0  0  0  0  0  0  0  0
    0.9627   -0.0410    8.3285 H   0  0  0  0  0  0  0  0  0  0  0  0
   -0.5888    0.8024    8.3145 H   0  0  0  0  0  0  0  0  0  0  0  0
   -0.5371   -0.9542    8.1415 H   0  0  0  0  0  0  0  0  0  0  0  0
    0.7805    1.4335    6.0248 C   0  0  0  0  0  0  0  0  0  0  0  0
    0.8620    1.5670    4.9452 H   0  0  0  0  0  0  0  0  0  0  0  0
    0.2370    2.2882    6.4303 H   0  0  0  0  0  0  0  0  0  0  0  0
    1.7881    1.4441    6.4431 H   0  0  0  0  0  0  0  0  0  0  0  0
   -1.3386    0.1464    5.7631 C   0  0  0  0  0  0  0  0  0  0  0  0
   -1.3016    0.2636    4.6793 H   0  0  0  0  0  0  0  0  0  0  0  0
   -1.9209    0.9738    6.1715 H   0  0  0  0  0  0  0  0  0  0  0  0
   -1.8685   -0.7814    5.9845 H   0  0  0  0  0  0  0  0  0  0  0  0
    0.8544   -1.0469    5.7831 C   0  0  0  0  0  0  0  0  0  0  0  0
    0.3591   -1.9939    6.0034 H   0  0  0  0  0  0  0  0  0  0  0  0
    0.9492   -0.9597    4.7000 H   0  0  0  0  0  0  0  0  0  0  0  0
    1.8591   -1.0843    6.2069 H   0  0  0  0  0  0  0  0  0  0  0  0
  1  4  1  0  0  0  0
  1  3  1  0  0  0  0
  1 13  1  0  0  0  0
  2  1  1  0  0  0  0
  4  7  1  0  0  0  0
  4  6  1  0  0  0  0
  5  4  1  0  0  0  0
  7  9  1  0  0  0  0
  8  7  1  0  0  0  0
 10  7  1  0  0  0  0
 10 13  1  0  0  0  0
 10 12  1  0  0  0  0
 11 10  1  0  0  0  0
 13 15  1  0  0  0  0
 14 13  1  0  0  0  0
 16 17  1  0  0  0  0
 17 20  1  0  0  0  0
 17 19  1  0  0  0  0
 17 18  1  0  0  0  0
 21 16  1  0  0  0  0
 21 23  1  0  0  0  0
 21 24  1  0  0  0  0
 22 21  1  0  0  0  0
 25 28  1  0  0  0  0
 25 27  1  0  0  0  0
 25 16  1  0  0  0  0
 26 25  1  0  0  0  0
 29 30  1  0  0  0  0
 29 32  1  0  0  0  0
 29 16  1  0  0  0  0
 31 29  1  0  0  0  0
M  END
>  <SMILES>
C1CCCC1.C(C)(C)(C)C

>  <MoleculeName>
CyclopentaneNeopentane125

>  <Distance Scale>
1.25

>  <Energy Value>
-1.47

$$$$
/home/S66X8/3109_52BenzeneAcOHOHpi100.xyz
 OpenBabel06262409173D

 20 19  0  0  0  0  0  0  0  0999 V2000
    0.9641    0.8751    0.3780 C   0  0  0  0  0  0  0  0  0  0  0  0
    1.6598    1.6999    0.4460 H   0  0  0  0  0  0  0  0  0  0  0  0
    1.4311   -0.4131    0.1190 C   0  0  0  0  0  0  0  0  0  0  0  0
    2.4895   -0.5872   -0.0170 H   0  0  0  0  0  0  0  0  0  0  0  0
    0.5341   -1.4776    0.0424 C   0  0  0  0  0  0  0  0  0  0  0  0
    0.8970   -2.4774   -0.1520 H   0  0  0  0  0  0  0  0  0  0  0  0
   -0.8303   -1.2536    0.2209 C   0  0  0  0  0  0  0  0  0  0  0  0
   -1.5258   -2.0796    0.1641 H   0  0  0  0  0  0  0  0  0  0  0  0
   -1.2976    0.0344    0.4802 C   0  0  0  0  0  0  0  0  0  0  0  0
   -2.3544    0.2080    0.6286 H   0  0  0  0  0  0  0  0  0  0  0  0
   -0.4004    1.0998    0.5616 C   0  0  0  0  0  0  0  0  0  0  0  0
   -0.7605    2.0938    0.7848 H   0  0  0  0  0  0  0  0  0  0  0  0
   -0.1184    0.5314    4.3802 C   0  0  0  0  0  0  0  0  0  0  0  0
   -0.5866    1.5808    4.0009 O   0  0  0  0  0  0  0  0  0  0  0  0
    0.2848   -0.4462    3.5409 O   0  0  0  0  0  0  0  0  0  0  0  0
    0.1161   -0.1203    2.6395 H   0  0  0  0  0  0  0  0  0  0  0  0
    0.0916    0.1344    5.8116 C   0  0  0  0  0  0  0  0  0  0  0  0
   -0.2184    0.9437    6.4616 H   0  0  0  0  0  0  0  0  0  0  0  0
   -0.4845   -0.7622    6.0285 H   0  0  0  0  0  0  0  0  0  0  0  0
    1.1401   -0.1017    5.9766 H   0  0  0  0  0  0  0  0  0  0  0  0
  1  2  1  0  0  0  0
  1 11  1  0  0  0  0
  3  1  2  0  0  0  0
  4  3  1  0  0  0  0
  5  3  1  0  0  0  0
  5  7  2  0  0  0  0
  6  5  1  0  0  0  0
  7  9  1  0  0  0  0
  8  7  1  0  0  0  0
  9 11  2  0  0  0  0
  9 10  1  0  0  0  0
 11 12  1  0  0  0  0
 13 17  1  0  0  0  0
 14 13  2  0  0  0  0
 15 13  1  0  0  0  0
 16 15  1  0  0  0  0
 17 20  1  0  0  0  0
 17 19  1  0  0  0  0
 17 18  1  0  0  0  0
M  END
>  <SMILES>
c1ccccc1.C(=O)(O)C

>  <MoleculeName>
BenzeneAcOHOHpi100

>  <Distance Scale>
1.0

>  <Energy Value>
-4.7

$$$$
/home/S66X8/2906_26UracilUracilpipi200.xyz
 OpenBabel06262409173D

 24 24  0  0  0  0  0  0  0  0999 V2000
    1.3769    0.8397    0.7346 N   0  0  0  0  0  0  0  0  0  0  0  0
    1.0518    1.3862    1.5234 H   0  0  0  0  0  0  0  0  0  0  0  0
    1.3090    1.4575   -0.5207 C   0  0  0  0  0  0  0  0  0  0  0  0
    0.9206    2.6111   -0.6260 O   0  0  0  0  0  0  0  0  0  0  0  0
    2.0114   -1.2132   -0.0981 N   0  0  0  0  0  0  0  0  0  0  0  0
    1.7273    0.9908   -2.6120 H   0  0  0  0  0  0  0  0  0  0  0  0
    2.0257   -0.6972   -1.3644 C   0  0  0  0  0  0  0  0  0  0  0  0
    2.2975   -1.3911   -2.1456 H   0  0  0  0  0  0  0  0  0  0  0  0
    1.7145    0.5919   -1.6125 C   0  0  0  0  0  0  0  0  0  0  0  0
    2.1295   -2.2015    0.0568 H   0  0  0  0  0  0  0  0  0  0  0  0
    1.6459   -0.4852    1.0187 C   0  0  0  0  0  0  0  0  0  0  0  0
    1.5611   -0.9718    2.1298 O   0  0  0  0  0  0  0  0  0  0  0  0
   -4.0859   -1.3074    0.7346 N   0  0  0  0  0  0  0  0  0  0  0  0
   -3.7608   -1.8539    1.5234 H   0  0  0  0  0  0  0  0  0  0  0  0
   -4.0180   -1.9252   -0.5207 C   0  0  0  0  0  0  0  0  0  0  0  0
   -3.6296   -3.0788   -0.6260 O   0  0  0  0  0  0  0  0  0  0  0  0
   -4.7204    0.7455   -0.0981 N   0  0  0  0  0  0  0  0  0  0  0  0
   -4.4363   -1.4585   -2.6120 H   0  0  0  0  0  0  0  0  0  0  0  0
   -4.7347    0.2295   -1.3644 C   0  0  0  0  0  0  0  0  0  0  0  0
   -5.0065    0.9234   -2.1456 H   0  0  0  0  0  0  0  0  0  0  0  0
   -4.4235   -1.0596   -1.6125 C   0  0  0  0  0  0  0  0  0  0  0  0
   -4.8384    1.7338    0.0568 H   0  0  0  0  0  0  0  0  0  0  0  0
   -4.3549    0.0175    1.0187 C   0  0  0  0  0  0  0  0  0  0  0  0
   -4.2701    0.5041    2.1298 O   0  0  0  0  0  0  0  0  0  0  0  0
  1 11  1  0  0  0  0
  1  2  1  0  0  0  0
  3  1  1  0  0  0  0
  4  3  2  0  0  0  0
  5 10  1  0  0  0  0
  5 11  1  0  0  0  0
  6  9  1  0  0  0  0
  7  5  1  0  0  0  0
  8  7  1  0  0  0  0
  9  7  2  0  0  0  0
  9  3  1  0  0  0  0
 11 12  2  0  0  0  0
 13 23  1  0  0  0  0
 13 14  1  0  0  0  0
 15 13  1  0  0  0  0
 16 15  2  0  0  0  0
 17 22  1  0  0  0  0
 17 23  1  0  0  0  0
 18 21  1  0  0  0  0
 19 17  1  0  0  0  0
 20 19  1  0  0  0  0
 21 19  2  0  0  0  0
 21 15  1  0  0  0  0
 23 24  2  0  0  0  0
M  END
>  <SMILES>
[nH]1c(=O)cc[nH]c1=O.[nH]1c(=O)cc[nH]c1=O

>  <MoleculeName>
UracilUracilpipi200

>  <Distance Scale>
2.0

>  <Energy Value>
-0.99

$$$$
/home/S66X8/3150_57BenzenePeptideNHpi105.xyz
 OpenBabel06262409173D

 24 23  0  0  0  0  0  0  0  0999 V2000
    0.4088    1.0510    0.3755 C   0  0  0  0  0  0  0  0  0  0  0  0
    1.0119    1.9485    0.3681 H   0  0  0  0  0  0  0  0  0  0  0  0
    1.0192   -0.1998    0.2891 C   0  0  0  0  0  0  0  0  0  0  0  0
    2.0956   -0.2718    0.2172 H   0  0  0  0  0  0  0  0  0  0  0  0
    0.2417   -1.3569    0.2967 C   0  0  0  0  0  0  0  0  0  0  0  0
    0.7152   -2.3266    0.2281 H   0  0  0  0  0  0  0  0  0  0  0  0
   -1.1462   -1.2643    0.3939 C   0  0  0  0  0  0  0  0  0  0  0  0
   -1.7492   -2.1619    0.3994 H   0  0  0  0  0  0  0  0  0  0  0  0
   -1.7573   -0.0140    0.4830 C   0  0  0  0  0  0  0  0  0  0  0  0
   -2.8335    0.0582    0.5590 H   0  0  0  0  0  0  0  0  0  0  0  0
   -0.9797    1.1442    0.4723 C   0  0  0  0  0  0  0  0  0  0  0  0
   -1.4541    2.1140    0.5371 H   0  0  0  0  0  0  0  0  0  0  0  0
    0.2482    1.9627    4.3959 C   0  0  0  0  0  0  0  0  0  0  0  0
   -0.1099    2.1285    3.3826 H   0  0  0  0  0  0  0  0  0  0  0  0
    1.2728    2.3195    4.4773 H   0  0  0  0  0  0  0  0  0  0  0  0
   -0.3559    2.5364    5.0942 H   0  0  0  0  0  0  0  0  0  0  0  0
    0.2114    0.5096    4.8116 C   0  0  0  0  0  0  0  0  0  0  0  0
    0.4960    0.1572    5.9501 O   0  0  0  0  0  0  0  0  0  0  0  0
   -0.1610   -0.3561    3.8323 N   0  0  0  0  0  0  0  0  0  0  0  0
   -0.3222    0.0019    2.9063 H   0  0  0  0  0  0  0  0  0  0  0  0
   -0.1978   -1.7830    4.0504 C   0  0  0  0  0  0  0  0  0  0  0  0
   -0.1197   -1.9499    5.1204 H   0  0  0  0  0  0  0  0  0  0  0  0
   -1.1331   -2.2014    3.6837 H   0  0  0  0  0  0  0  0  0  0  0  0
    0.6313   -2.2869    3.5531 H   0  0  0  0  0  0  0  0  0  0  0  0
  1 11  1  0  0  0  0
  2  1  1  0  0  0  0
  3  5  1  0  0  0  0
  3  1  2  0  0  0  0
  4  3  1  0  0  0  0
  5  7  2  0  0  0  0
  6  5  1  0  0  0  0
  7  8  1  0  0  0  0
  7  9  1  0  0  0  0
  9 10  1  0  0  0  0
 11  9  2  0  0  0  0
 11 12  1  0  0  0  0
 13 15  1  0  0  0  0
 13 17  1  0  0  0  0
 13 16  1  0  0  0  0
 14 13  1  0  0  0  0
 17 18  2  0  0  0  0
 19 21  1  0  0  0  0
 19 17  1  0  0  0  0
 20 19  1  0  0  0  0
 21 22  1  0  0  0  0
 23 21  1  0  0  0  0
 24 21  1  0  0  0  0
M  END
>  <SMILES>
c1ccccc1.CC(=O)NC

>  <MoleculeName>
BenzenePeptideNHpi105

>  <Distance Scale>
1.05

>  <Energy Value>
-5.14

$$$$
/home/S66X8/3210_64PeptideEthene200.xyz
 OpenBabel06262409173D

 18 16  0  0  0  0  0  0  0  0999 V2000
    1.6297    0.5030    0.2701 C   0  0  0  0  0  0  0  0  0  0  0  0
    1.6416    1.4592   -0.2481 H   0  0  0  0  0  0  0  0  0  0  0  0
    2.3153   -0.1836   -0.2176 H   0  0  0  0  0  0  0  0  0  0  0  0
    1.9697    0.6494    1.2940 H   0  0  0  0  0  0  0  0  0  0  0  0
    0.2618   -0.1329    0.3146 C   0  0  0  0  0  0  0  0  0  0  0  0
    0.0993   -1.3096    0.6118 O   0  0  0  0  0  0  0  0  0  0  0  0
   -0.7735    0.7025    0.0221 N   0  0  0  0  0  0  0  0  0  0  0  0
   -0.5690    1.6666   -0.1658 H   0  0  0  0  0  0  0  0  0  0  0  0
   -2.1500    0.2660    0.0951 C   0  0  0  0  0  0  0  0  0  0  0  0
   -2.1447   -0.8194    0.1009 H   0  0  0  0  0  0  0  0  0  0  0  0
   -2.6405    0.6158    1.0036 H   0  0  0  0  0  0  0  0  0  0  0  0
   -2.7077    0.6208   -0.7683 H   0  0  0  0  0  0  0  0  0  0  0  0
    0.4067    0.4900    6.7684 C   0  0  0  0  0  0  0  0  0  0  0  0
    0.4019    1.2322    7.5543 H   0  0  0  0  0  0  0  0  0  0  0  0
   -0.2418    0.6578    5.9198 H   0  0  0  0  0  0  0  0  0  0  0  0
    1.1753   -0.5969    6.8382 C   0  0  0  0  0  0  0  0  0  0  0  0
    1.8206   -0.7687    7.6884 H   0  0  0  0  0  0  0  0  0  0  0  0
    1.1701   -1.3321    6.0459 H   0  0  0  0  0  0  0  0  0  0  0  0
  1  5  1  0  0  0  0
  1  4  1  0  0  0  0
  2  1  1  0  0  0  0
  3  1  1  0  0  0  0
  5  6  2  0  0  0  0
  7  9  1  0  0  0  0
  7  5  1  0  0  0  0
  8  7  1  0  0  0  0
  9 10  1  0  0  0  0
  9 11  1  0  0  0  0
 12  9  1  0  0  0  0
 13 16  2  0  0  0  0
 13 14  1  0  0  0  0
 15 13  1  0  0  0  0
 16 17  1  0  0  0  0
 18 16  1  0  0  0  0
M  END
>  <SMILES>
CC(=O)NC.C=C

>  <MoleculeName>
PeptideEthene200

>  <Distance Scale>
2.0

>  <Energy Value>
-0.19

$$$$
/home/S66X8/3175_60EthyneAcOHOHpi110.xyz
 OpenBabel06262409173D

 12 10  0  0  0  0  0  0  0  0999 V2000
   -0.6106    0.2275   -0.1706 C   0  0  0  0  0  0  0  0  0  0  0  0
    0.1074    0.8614   -0.6342 H   0  0  0  0  0  0  0  0  0  0  0  0
   -1.3863   -0.5253    0.3800 C   0  0  0  0  0  0  0  0  0  0  0  0
   -2.0807   -1.1741    0.8544 H   0  0  0  0  0  0  0  0  0  0  0  0
    3.0700   -0.7461    0.5429 C   0  0  0  0  0  0  0  0  0  0  0  0
    2.8158    0.2100   -0.1560 O   0  0  0  0  0  0  0  0  0  0  0  0
    2.1221   -1.5204    1.1106 O   0  0  0  0  0  0  0  0  0  0  0  0
    1.2611   -1.1532    0.8428 H   0  0  0  0  0  0  0  0  0  0  0  0
    4.4456   -1.2276    0.8930 C   0  0  0  0  0  0  0  0  0  0  0  0
    5.1840   -0.5900    0.4222 H   0  0  0  0  0  0  0  0  0  0  0  0
    4.5718   -1.2157    1.9731 H   0  0  0  0  0  0  0  0  0  0  0  0
    4.5679   -2.2554    0.5598 H   0  0  0  0  0  0  0  0  0  0  0  0
  1  3  3  0  0  0  0
  2  1  1  0  0  0  0
  3  4  1  0  0  0  0
  5  9  1  0  0  0  0
  5  7  1  0  0  0  0
  6  5  2  0  0  0  0
  8  7  1  0  0  0  0
  9 11  1  0  0  0  0
 10  9  1  0  0  0  0
 12  9  1  0  0  0  0
M  END
>  <SMILES>
C#C.C(=O)(O)C

>  <MoleculeName>
EthyneAcOHOHpi110

>  <Distance Scale>
1.1

>  <Energy Value>
-4.39

$$$$
/home/S66X8/3024_41UracilPentane125.xyz
 OpenBabel06262409173D

 29 28  0  0  0  0  0  0  0  0999 V2000
   -0.2089   -0.9646    0.5348 N   0  0  0  0  0  0  0  0  0  0  0  0
   -0.2242   -1.9731    0.6051 H   0  0  0  0  0  0  0  0  0  0  0  0
   -1.4463   -0.3446    0.3067 C   0  0  0  0  0  0  0  0  0  0  0  0
   -2.4612   -1.0108    0.1979 O   0  0  0  0  0  0  0  0  0  0  0  0
   -1.3578    1.1032    0.2281 C   0  0  0  0  0  0  0  0  0  0  0  0
   -2.2566    1.6677    0.0498 H   0  0  0  0  0  0  0  0  0  0  0  0
   -0.1630    1.7099    0.3811 C   0  0  0  0  0  0  0  0  0  0  0  0
   -0.0463    2.7824    0.3333 H   0  0  0  0  0  0  0  0  0  0  0  0
    0.9855    1.0008    0.6112 N   0  0  0  0  0  0  0  0  0  0  0  0
    1.8676    1.4669    0.7448 H   0  0  0  0  0  0  0  0  0  0  0  0
    1.0270   -0.3792    0.7126 C   0  0  0  0  0  0  0  0  0  0  0  0
    2.0492   -0.9974    0.9373 O   0  0  0  0  0  0  0  0  0  0  0  0
    1.2140    2.3664    4.9203 C   0  0  0  0  0  0  0  0  0  0  0  0
    0.7831    2.6775    3.9675 H   0  0  0  0  0  0  0  0  0  0  0  0
    0.5797    2.7719    5.7085 H   0  0  0  0  0  0  0  0  0  0  0  0
    2.1968    2.8269    5.0134 H   0  0  0  0  0  0  0  0  0  0  0  0
    1.2870    0.8476    5.0098 C   0  0  0  0  0  0  0  0  0  0  0  0
    1.7174    0.5580    5.9711 H   0  0  0  0  0  0  0  0  0  0  0  0
    1.9616    0.4564    4.2447 H   0  0  0  0  0  0  0  0  0  0  0  0
   -0.0778    0.1894    4.8550 C   0  0  0  0  0  0  0  0  0  0  0  0
   -0.7490    0.5583    5.6366 H   0  0  0  0  0  0  0  0  0  0  0  0
   -0.5253    0.4997    3.9051 H   0  0  0  0  0  0  0  0  0  0  0  0
   -0.0215   -1.3313    4.9146 C   0  0  0  0  0  0  0  0  0  0  0  0
    0.4021   -1.6337    5.8752 H   0  0  0  0  0  0  0  0  0  0  0  0
    0.6700   -1.6932    4.1501 H   0  0  0  0  0  0  0  0  0  0  0  0
   -1.3908   -1.9731    4.7308 C   0  0  0  0  0  0  0  0  0  0  0  0
   -1.8292   -1.6997    3.7707 H   0  0  0  0  0  0  0  0  0  0  0  0
   -1.3339   -3.0599    4.7749 H   0  0  0  0  0  0  0  0  0  0  0  0
   -2.0788   -1.6448    5.5101 H   0  0  0  0  0  0  0  0  0  0  0  0
  1  2  1  0  0  0  0
  1 11  1  0  0  0  0
  3  1  1  0  0  0  0
  4  3  2  0  0  0  0
  5  3  1  0  0  0  0
  5  7  2  0  0  0  0
  6  5  1  0  0  0  0
  7  9  1  0  0  0  0
  8  7  1  0  0  0  0
  9 11  1  0  0  0  0
  9 10  1  0  0  0  0
 11 12  2  0  0  0  0
 13 17  1  0  0  0  0
 13 16  1  0  0  0  0
 13 15  1  0  0  0  0
 14 13  1  0  0  0  0
 17 18  1  0  0  0  0
 19 17  1  0  0  0  0
 20 23  1  0  0  0  0
 20 17  1  0  0  0  0
 20 21  1  0  0  0  0
 22 20  1  0  0  0  0
 23 24  1  0  0  0  0
 25 23  1  0  0  0  0
 26 28  1  0  0  0  0
 26 23  1  0  0  0  0
 26 29  1  0  0  0  0
 27 26  1  0  0  0  0
M  END
>  <SMILES>
[nH]1c(=O)cc[nH]c1=O.CCCCC

>  <MoleculeName>
UracilPentane125

>  <Distance Scale>
1.25

>  <Energy Value>
-2.44

$$$$
/home/S66X8/2707_02WaterMeOH090.xyz
 OpenBabel06262409173D

  9  7  0  0  0  0  0  0  0  0999 V2000
   -0.5253   -0.0510   -0.3145 O   0  0  0  0  0  0  0  0  0  0  0  0
   -0.9420    0.7479    0.0113 H   0  0  0  0  0  0  0  0  0  0  0  0
    0.4037    0.0598   -0.0736 H   0  0  0  0  0  0  0  0  0  0  0  0
    2.1648    0.0466    0.0603 O   0  0  0  0  0  0  0  0  0  0  0  0
    2.5328   -0.5254    0.7378 H   0  0  0  0  0  0  0  0  0  0  0  0
    2.6298   -0.4250   -1.2018 C   0  0  0  0  0  0  0  0  0  0  0  0
    2.1990    0.2261   -1.9550 H   0  0  0  0  0  0  0  0  0  0  0  0
    3.7157   -0.3742   -1.2762 H   0  0  0  0  0  0  0  0  0  0  0  0
    2.3014   -1.4449   -1.4009 H   0  0  0  0  0  0  0  0  0  0  0  0
  1  3  1  0  0  0  0
  1  2  1  0  0  0  0
  4  5  1  0  0  0  0
  6  4  1  0  0  0  0
  7  6  1  0  0  0  0
  8  6  1  0  0  0  0
  9  6  1  0  0  0  0
M  END
>  <SMILES>
O.OC

>  <MoleculeName>
WaterMeOH090

>  <Distance Scale>
0.9

>  <Energy Value>
-5.19

$$$$
/home/S66X8/2942_31UracilEthene105.xyz
 OpenBabel06262409173D

 18 17  0  0  0  0  0  0  0  0999 V2000
   -0.0509   -0.9801    0.0340 N   0  0  0  0  0  0  0  0  0  0  0  0
   -0.0532   -1.9907    0.0498 H   0  0  0  0  0  0  0  0  0  0  0  0
   -1.3088   -0.3619    0.0040 C   0  0  0  0  0  0  0  0  0  0  0  0
   -2.3272   -1.0326   -0.0058 O   0  0  0  0  0  0  0  0  0  0  0  0
   -1.2368    1.0880   -0.0122 C   0  0  0  0  0  0  0  0  0  0  0  0
   -2.1527    1.6515   -0.0548 H   0  0  0  0  0  0  0  0  0  0  0  0
   -0.0352    1.6978    0.0337 C   0  0  0  0  0  0  0  0  0  0  0  0
    0.0704    2.7725    0.0319 H   0  0  0  0  0  0  0  0  0  0  0  0
    1.1345    0.9903    0.0918 N   0  0  0  0  0  0  0  0  0  0  0  0
    2.0237    1.4568    0.1557 H   0  0  0  0  0  0  0  0  0  0  0  0
    1.1932   -0.3918    0.1158 C   0  0  0  0  0  0  0  0  0  0  0  0
    2.2364   -1.0112    0.1942 O   0  0  0  0  0  0  0  0  0  0  0  0
    0.7305    0.0308    3.5657 C   0  0  0  0  0  0  0  0  0  0  0  0
    1.2476   -0.8402    3.1885 H   0  0  0  0  0  0  0  0  0  0  0  0
    1.3361    0.8178    3.9930 H   0  0  0  0  0  0  0  0  0  0  0  0
   -0.5983    0.1314    3.5165 C   0  0  0  0  0  0  0  0  0  0  0  0
   -1.2103   -0.6561    3.0996 H   0  0  0  0  0  0  0  0  0  0  0  0
   -1.1101    1.0024    3.9005 H   0  0  0  0  0  0  0  0  0  0  0  0
  1  2  1  0  0  0  0
  1 11  1  0  0  0  0
  3  1  1  0  0  0  0
  4  3  2  0  0  0  0
  5  3  1  0  0  0  0
  5  7  2  0  0  0  0
  6  5  1  0  0  0  0
  7  9  1  0  0  0  0
  8  7  1  0  0  0  0
  9 11  1  0  0  0  0
  9 10  1  0  0  0  0
 11 12  2  0  0  0  0
 13 15  1  0  0  0  0
 14 13  1  0  0  0  0
 16 13  2  0  0  0  0
 16 18  1  0  0  0  0
 17 16  1  0  0  0  0
M  END
>  <SMILES>
[nH]1c(=O)cc[nH]c1=O.C=C

>  <MoleculeName>
UracilEthene105

>  <Distance Scale>
1.05

>  <Energy Value>
-3.24

$$$$
/home/S66X8/3224_66MeNH2Pyridine125.xyz
 OpenBabel06262409173D

 18 17  0  0  0  0  0  0  0  0999 V2000
   -0.5411    0.0296   -0.2090 N   0  0  0  0  0  0  0  0  0  0  0  0
    0.0556   -0.7861   -0.1303 H   0  0  0  0  0  0  0  0  0  0  0  0
   -1.4697   -0.2747    0.0531 H   0  0  0  0  0  0  0  0  0  0  0  0
   -0.0788    1.0424    0.7385 C   0  0  0  0  0  0  0  0  0  0  0  0
   -0.7202    1.9194    0.6720 H   0  0  0  0  0  0  0  0  0  0  0  0
   -0.0508    0.7238    1.7855 H   0  0  0  0  0  0  0  0  0  0  0  0
    0.9264    1.3566    0.4620 H   0  0  0  0  0  0  0  0  0  0  0  0
    2.9345   -1.3788    0.0717 N   0  0  0  0  0  0  0  0  0  0  0  0
    3.2729   -0.5665   -0.9400 C   0  0  0  0  0  0  0  0  0  0  0  0
    2.7303   -0.7110   -1.8653 H   0  0  0  0  0  0  0  0  0  0  0  0
    4.2443    0.4257   -0.8396 C   0  0  0  0  0  0  0  0  0  0  0  0
    4.4691    1.0500   -1.6925 H   0  0  0  0  0  0  0  0  0  0  0  0
    4.9051    0.5952    0.3727 C   0  0  0  0  0  0  0  0  0  0  0  0
    5.6630    1.3574    0.4890 H   0  0  0  0  0  0  0  0  0  0  0  0
    4.5650   -0.2398    1.4318 C   0  0  0  0  0  0  0  0  0  0  0  0
    5.0476   -0.1493    2.3945 H   0  0  0  0  0  0  0  0  0  0  0  0
    3.5812   -1.2045    1.2326 C   0  0  0  0  0  0  0  0  0  0  0  0
    3.2951   -1.8683    2.0392 H   0  0  0  0  0  0  0  0  0  0  0  0
  1  2  1  0  0  0  0
  1  3  1  0  0  0  0
  1  4  1  0  0  0  0
  4  6  1  0  0  0  0
  5  4  1  0  0  0  0
  7  4  1  0  0  0  0
  8 17  1  0  0  0  0
  9 11  1  0  0  0  0
  9  8  2  0  0  0  0
 10  9  1  0  0  0  0
 11 13  2  0  0  0  0
 12 11  1  0  0  0  0
 13 14  1  0  0  0  0
 13 15  1  0  0  0  0
 15 16  1  0  0  0  0
 17 15  2  0  0  0  0
 17 18  1  0  0  0  0
M  END
>  <SMILES>
NC.n1ccccc1

>  <MoleculeName>
MeNH2Pyridine125

>  <Distance Scale>
1.25

>  <Energy Value>
-2.71

$$$$
/home/S66X8/2739_06MeOHMeNH2090.xyz
 OpenBabel06262409173D

 13 11  0  0  0  0  0  0  0  0999 V2000
   -0.7069    0.0458    0.0064 O   0  0  0  0  0  0  0  0  0  0  0  0
    0.2656    0.0717    0.0013 H   0  0  0  0  0  0  0  0  0  0  0  0
   -1.0767   -1.3139    0.0016 C   0  0  0  0  0  0  0  0  0  0  0  0
   -2.1629   -1.3632    0.0059 H   0  0  0  0  0  0  0  0  0  0  0  0
   -0.7234   -1.8447   -0.8877 H   0  0  0  0  0  0  0  0  0  0  0  0
   -0.7161   -1.8528    0.8831 H   0  0  0  0  0  0  0  0  0  0  0  0
    2.0354   -0.0272   -0.0029 N   0  0  0  0  0  0  0  0  0  0  0  0
    2.4060    0.4806    0.7902 H   0  0  0  0  0  0  0  0  0  0  0  0
    2.4061    0.4372   -0.8222 H   0  0  0  0  0  0  0  0  0  0  0  0
    2.5131   -1.4132    0.0345 C   0  0  0  0  0  0  0  0  0  0  0  0
    2.1213   -1.9472   -0.8277 H   0  0  0  0  0  0  0  0  0  0  0  0
    3.5998   -1.5199    0.0376 H   0  0  0  0  0  0  0  0  0  0  0  0
    2.1210   -1.8999    0.9242 H   0  0  0  0  0  0  0  0  0  0  0  0
  2  1  1  0  0  0  0
  3  4  1  0  0  0  0
  3  1  1  0  0  0  0
  3  6  1  0  0  0  0
  5  3  1  0  0  0  0
  7 10  1  0  0  0  0
  7  8  1  0  0  0  0
  9  7  1  0  0  0  0
 10 12  1  0  0  0  0
 10 13  1  0  0  0  0
 11 10  1  0  0  0  0
M  END
>  <SMILES>
OC.NC

>  <MoleculeName>
MeOHMeNH2090

>  <Distance Scale>
0.9

>  <Energy Value>
-6.97

$$$$
/home/S66X8/3133_55BenzeneMeOHOHpi100.xyz
 OpenBabel06262409173D

 18 17  0  0  0  0  0  0  0  0999 V2000
    0.7597    1.0313    0.3738 C   0  0  0  0  0  0  0  0  0  0  0  0
    1.4350    1.8757    0.3747 H   0  0  0  0  0  0  0  0  0  0  0  0
    1.2666   -0.2674    0.4213 C   0  0  0  0  0  0  0  0  0  0  0  0
    2.3349   -0.4292    0.4594 H   0  0  0  0  0  0  0  0  0  0  0  0
    0.3953   -1.3560    0.4249 C   0  0  0  0  0  0  0  0  0  0  0  0
    0.7887   -2.3625    0.4630 H   0  0  0  0  0  0  0  0  0  0  0  0
   -0.9822   -1.1467    0.3813 C   0  0  0  0  0  0  0  0  0  0  0  0
   -1.6577   -1.9911    0.3851 H   0  0  0  0  0  0  0  0  0  0  0  0
   -1.4893    0.1511    0.3376 C   0  0  0  0  0  0  0  0  0  0  0  0
   -2.5579    0.3138    0.3077 H   0  0  0  0  0  0  0  0  0  0  0  0
   -0.6188    1.2403    0.3339 C   0  0  0  0  0  0  0  0  0  0  0  0
   -1.0118    2.2471    0.3044 H   0  0  0  0  0  0  0  0  0  0  0  0
    0.0463    0.3058    3.6937 O   0  0  0  0  0  0  0  0  0  0  0  0
    0.1324    0.3557    2.7365 H   0  0  0  0  0  0  0  0  0  0  0  0
   -0.8498   -0.7518    3.9767 C   0  0  0  0  0  0  0  0  0  0  0  0
   -0.9456   -0.8086    5.0577 H   0  0  0  0  0  0  0  0  0  0  0  0
   -1.8420   -0.5801    3.5530 H   0  0  0  0  0  0  0  0  0  0  0  0
   -0.4834   -1.7149    3.6138 H   0  0  0  0  0  0  0  0  0  0  0  0
  1  2  1  0  0  0  0
  1  3  1  0  0  0  0
  3  5  2  0  0  0  0
  3  4  1  0  0  0  0
  5  6  1  0  0  0  0
  7  8  1  0  0  0  0
  7  5  1  0  0  0  0
  9  7  2  0  0  0  0
 10  9  1  0  0  0  0
 11  9  1  0  0  0  0
 11  1  2  0  0  0  0
 12 11  1  0  0  0  0
 13 15  1  0  0  0  0
 14 13  1  0  0  0  0
 15 16  1  0  0  0  0
 17 15  1  0  0  0  0
 18 15  1  0  0  0  0
M  END
>  <SMILES>
c1ccccc1.OC

>  <MoleculeName>
BenzeneMeOHOHpi100

>  <Distance Scale>
1.0

>  <Energy Value>
-4.19

$$$$
/home/S66X8/2810_14PeptideMeNH2200.xyz
 OpenBabel06262409173D

 19 17  0  0  0  0  0  0  0  0999 V2000
   -0.7786   -0.4633    2.4904 C   0  0  0  0  0  0  0  0  0  0  0  0
    0.2247   -0.0510    2.4135 H   0  0  0  0  0  0  0  0  0  0  0  0
   -0.7225   -1.4871    2.8546 H   0  0  0  0  0  0  0  0  0  0  0  0
   -1.3519    0.1108    3.2137 H   0  0  0  0  0  0  0  0  0  0  0  0
   -1.5205   -0.4566    1.1723 C   0  0  0  0  0  0  0  0  0  0  0  0
   -2.7008   -0.7836    1.0896 O   0  0  0  0  0  0  0  0  0  0  0  0
   -0.7920   -0.0696    0.1006 N   0  0  0  0  0  0  0  0  0  0  0  0
    0.1941    0.1457    0.2029 H   0  0  0  0  0  0  0  0  0  0  0  0
   -1.3978   -0.0561   -1.2113 C   0  0  0  0  0  0  0  0  0  0  0  0
   -2.3149    0.5289   -1.1997 H   0  0  0  0  0  0  0  0  0  0  0  0
   -0.6988    0.3873   -1.9154 H   0  0  0  0  0  0  0  0  0  0  0  0
   -1.6530   -1.0615   -1.5454 H   0  0  0  0  0  0  0  0  0  0  0  0
    4.3167    0.3653    0.3634 N   0  0  0  0  0  0  0  0  0  0  0  0
    4.7204    0.9052    1.1186 H   0  0  0  0  0  0  0  0  0  0  0  0
    4.7347    0.7326   -0.4822 H   0  0  0  0  0  0  0  0  0  0  0  0
    4.6890   -1.0459    0.5172 C   0  0  0  0  0  0  0  0  0  0  0  0
    4.2627   -1.6170   -0.3042 H   0  0  0  0  0  0  0  0  0  0  0  0
    5.7644   -1.2326    0.5430 H   0  0  0  0  0  0  0  0  0  0  0  0
    4.2545   -1.4303    1.4370 H   0  0  0  0  0  0  0  0  0  0  0  0
  1  3  1  0  0  0  0
  1  4  1  0  0  0  0
  2  1  1  0  0  0  0
  5  1  1  0  0  0  0
  6  5  2  0  0  0  0
  7  8  1  0  0  0  0
  7  5  1  0  0  0  0
  9 10  1  0  0  0  0
  9  7  1  0  0  0  0
 11  9  1  0  0  0  0
 12  9  1  0  0  0  0
 13 16  1  0  0  0  0
 13 14  1  0  0  0  0
 15 13  1  0  0  0  0
 16 18  1  0  0  0  0
 16 19  1  0  0  0  0
 17 16  1  0  0  0  0
M  END
>  <SMILES>
CC(=O)NC.NC

>  <MoleculeName>
PeptideMeNH2200

>  <Distance Scale>
2.0

>  <Energy Value>
-1.49

$$$$
/home/S66X8/2913_27BenzenePyridinepipi150.xyz
 OpenBabel06262409173D

 23 23  0  0  0  0  0  0  0  0999 V2000
    0.8187    0.8642    0.1883 C   0  0  0  0  0  0  0  0  0  0  0  0
    1.4661    1.7167    0.3447 H   0  0  0  0  0  0  0  0  0  0  0  0
    1.3690   -0.3905   -0.0667 C   0  0  0  0  0  0  0  0  0  0  0  0
    2.4430   -0.5119   -0.1106 H   0  0  0  0  0  0  0  0  0  0  0  0
    0.5344   -1.4885   -0.2719 C   0  0  0  0  0  0  0  0  0  0  0  0
    0.9608   -2.4616   -0.4755 H   0  0  0  0  0  0  0  0  0  0  0  0
   -0.8491   -1.3305   -0.2199 C   0  0  0  0  0  0  0  0  0  0  0  0
   -1.4971   -2.1819   -0.3796 H   0  0  0  0  0  0  0  0  0  0  0  0
   -1.3995   -0.0760    0.0404 C   0  0  0  0  0  0  0  0  0  0  0  0
   -2.4727    0.0449    0.0934 H   0  0  0  0  0  0  0  0  0  0  0  0
   -0.5653    1.0214    0.2423 C   0  0  0  0  0  0  0  0  0  0  0  0
   -0.9926    1.9937    0.4463 H   0  0  0  0  0  0  0  0  0  0  0  0
   -2.8566    0.3864    5.1871 N   0  0  0  0  0  0  0  0  0  0  0  0
   -2.2417    1.5441    5.4671 C   0  0  0  0  0  0  0  0  0  0  0  0
   -2.8893    2.3973    5.6297 H   0  0  0  0  0  0  0  0  0  0  0  0
   -0.8595    1.6849    5.5573 C   0  0  0  0  0  0  0  0  0  0  0  0
   -0.4277    2.6486    5.7885 H   0  0  0  0  0  0  0  0  0  0  0  0
   -0.0586    0.5680    5.3431 C   0  0  0  0  0  0  0  0  0  0  0  0
    1.0190    0.6383    5.3979 H   0  0  0  0  0  0  0  0  0  0  0  0
   -0.6791   -0.6407    5.0494 C   0  0  0  0  0  0  0  0  0  0  0  0
   -0.1033   -1.5363    4.8654 H   0  0  0  0  0  0  0  0  0  0  0  0
   -2.0696   -0.6787    4.9840 C   0  0  0  0  0  0  0  0  0  0  0  0
   -2.5785   -1.6072    4.7551 H   0  0  0  0  0  0  0  0  0  0  0  0
  1 11  1  0  0  0  0
  1  2  1  0  0  0  0
  3  1  2  0  0  0  0
  4  3  1  0  0  0  0
  5  7  2  0  0  0  0
  5  3  1  0  0  0  0
  6  5  1  0  0  0  0
  7  9  1  0  0  0  0
  8  7  1  0  0  0  0
  9 10  1  0  0  0  0
  9 11  2  0  0  0  0
 11 12  1  0  0  0  0
 13 14  1  0  0  0  0
 14 16  2  0  0  0  0
 14 15  1  0  0  0  0
 16 17  1  0  0  0  0
 18 19  1  0  0  0  0
 18 16  1  0  0  0  0
 20 18  2  0  0  0  0
 21 20  1  0  0  0  0
 22 20  1  0  0  0  0
 22 13  2  0  0  0  0
 23 22  1  0  0  0  0
M  END
>  <SMILES>
c1ccccc1.n1ccccc1

>  <MoleculeName>
BenzenePyridinepipi150

>  <Distance Scale>
1.5

>  <Energy Value>
-0.72

$$$$
/home/S66X8/2937_30BenzeneEthene150.xyz
 OpenBabel06262409173D

 18 17  0  0  0  0  0  0  0  0999 V2000
    0.8355    1.1152    0.0214 C   0  0  0  0  0  0  0  0  0  0  0  0
    1.4843    1.9806    0.0195 H   0  0  0  0  0  0  0  0  0  0  0  0
    1.3833   -0.1661    0.0238 C   0  0  0  0  0  0  0  0  0  0  0  0
    2.4571   -0.2952    0.0228 H   0  0  0  0  0  0  0  0  0  0  0  0
    0.5476   -1.2813    0.0217 C   0  0  0  0  0  0  0  0  0  0  0  0
    0.9729   -2.2758    0.0198 H   0  0  0  0  0  0  0  0  0  0  0  0
   -0.8355   -1.1152    0.0214 C   0  0  0  0  0  0  0  0  0  0  0  0
   -1.4843   -1.9806    0.0195 H   0  0  0  0  0  0  0  0  0  0  0  0
   -1.3833    0.1662    0.0238 C   0  0  0  0  0  0  0  0  0  0  0  0
   -2.4572    0.2952    0.0228 H   0  0  0  0  0  0  0  0  0  0  0  0
   -0.5476    1.2813    0.0217 C   0  0  0  0  0  0  0  0  0  0  0  0
   -0.9729    2.2758    0.0198 H   0  0  0  0  0  0  0  0  0  0  0  0
    0.6558   -0.1168    5.2081 C   0  0  0  0  0  0  0  0  0  0  0  0
    1.0472   -1.1239    5.2036 H   0  0  0  0  0  0  0  0  0  0  0  0
    1.3709    0.6933    5.2036 H   0  0  0  0  0  0  0  0  0  0  0  0
   -0.6558    0.1168    5.2081 C   0  0  0  0  0  0  0  0  0  0  0  0
   -1.3708   -0.6933    5.2036 H   0  0  0  0  0  0  0  0  0  0  0  0
   -1.0472    1.1239    5.2037 H   0  0  0  0  0  0  0  0  0  0  0  0
  1 11  2  0  0  0  0
  1  3  1  0  0  0  0
  2  1  1  0  0  0  0
  4  3  1  0  0  0  0
  5  3  2  0  0  0  0
  6  5  1  0  0  0  0
  7  5  1  0  0  0  0
  7  9  2  0  0  0  0
  8  7  1  0  0  0  0
 10  9  1  0  0  0  0
 11  9  1  0  0  0  0
 12 11  1  0  0  0  0
 13 16  2  0  0  0  0
 14 13  1  0  0  0  0
 15 13  1  0  0  0  0
 17 16  1  0  0  0  0
 18 16  1  0  0  0  0
M  END
>  <SMILES>
c1ccccc1.C=C

>  <MoleculeName>
BenzeneEthene150

>  <Distance Scale>
1.5

>  <Energy Value>
-0.17

$$$$
/home/S66X8/3186_61PentaneAcOH200.xyz
 OpenBabel06262409173D

 25 23  0  0  0  0  0  0  0  0999 V2000
   -2.2753   -0.1351    0.8313 C   0  0  0  0  0  0  0  0  0  0  0  0
   -2.4907   -0.7279   -0.0576 H   0  0  0  0  0  0  0  0  0  0  0  0
   -2.2263   -0.8184    1.6788 H   0  0  0  0  0  0  0  0  0  0  0  0
   -3.1120    0.5449    0.9874 H   0  0  0  0  0  0  0  0  0  0  0  0
   -0.9617    0.6193    0.6694 C   0  0  0  0  0  0  0  0  0  0  0  0
   -0.7887    1.2504    1.5447 H   0  0  0  0  0  0  0  0  0  0  0  0
   -1.0262    1.2954   -0.1865 H   0  0  0  0  0  0  0  0  0  0  0  0
    0.2265   -0.3147    0.4800 C   0  0  0  0  0  0  0  0  0  0  0  0
    0.3094   -0.9751    1.3480 H   0  0  0  0  0  0  0  0  0  0  0  0
    0.0392   -0.9660   -0.3788 H   0  0  0  0  0  0  0  0  0  0  0  0
    1.5430    0.4212    0.2690 C   0  0  0  0  0  0  0  0  0  0  0  0
    1.7116    1.1078    1.1024 H   0  0  0  0  0  0  0  0  0  0  0  0
    1.4661    1.0437   -0.6253 H   0  0  0  0  0  0  0  0  0  0  0  0
    2.7276   -0.5269    0.1375 C   0  0  0  0  0  0  0  0  0  0  0  0
    2.5887   -1.2032   -0.7058 H   0  0  0  0  0  0  0  0  0  0  0  0
    3.6615    0.0117   -0.0160 H   0  0  0  0  0  0  0  0  0  0  0  0
    2.8352   -1.1374    1.0341 H   0  0  0  0  0  0  0  0  0  0  0  0
   -1.0293   -0.4294    6.9157 C   0  0  0  0  0  0  0  0  0  0  0  0
   -1.4519   -1.5446    6.7186 O   0  0  0  0  0  0  0  0  0  0  0  0
   -1.8430    0.6295    7.1483 O   0  0  0  0  0  0  0  0  0  0  0  0
   -2.7437    0.2752    7.1078 H   0  0  0  0  0  0  0  0  0  0  0  0
    0.4110   -0.0198    6.9330 C   0  0  0  0  0  0  0  0  0  0  0  0
    1.0368   -0.8899    6.7748 H   0  0  0  0  0  0  0  0  0  0  0  0
    0.5870    0.7145    6.1498 H   0  0  0  0  0  0  0  0  0  0  0  0
    0.6483    0.4495    7.8848 H   0  0  0  0  0  0  0  0  0  0  0  0
  1  4  1  0  0  0  0
  1  3  1  0  0  0  0
  2  1  1  0  0  0  0
  5  1  1  0  0  0  0
  5  6  1  0  0  0  0
  7  5  1  0  0  0  0
  8  5  1  0  0  0  0
  8  9  1  0  0  0  0
 10  8  1  0  0  0  0
 11  8  1  0  0  0  0
 11 12  1  0  0  0  0
 13 11  1  0  0  0  0
 14 11  1  0  0  0  0
 14 17  1  0  0  0  0
 15 14  1  0  0  0  0
 16 14  1  0  0  0  0
 18 22  1  0  0  0  0
 18 20  1  0  0  0  0
 19 18  2  0  0  0  0
 21 20  1  0  0  0  0
 22 25  1  0  0  0  0
 23 22  1  0  0  0  0
 24 22  1  0  0  0  0
M  END
>  <SMILES>
CCCCC.C(=O)(O)C

>  <MoleculeName>
PentaneAcOH200

>  <Distance Scale>
2.0

>  <Energy Value>
-0.17

$$$$
/home/S66X8/2999_38CyclopentaneCyclopentane110.xyz
 OpenBabel06262409173D

 30 30  0  0  0  0  0  0  0  0999 V2000
    0.9569   -0.8918    1.1420 C   0  0  0  0  0  0  0  0  0  0  0  0
    1.5046   -1.2784    0.2834 H   0  0  0  0  0  0  0  0  0  0  0  0
    1.4214   -1.3148    2.0310 H   0  0  0  0  0  0  0  0  0  0  0  0
    0.9909    0.6585    1.1455 C   0  0  0  0  0  0  0  0  0  0  0  0
    1.5106    1.0231    0.2599 H   0  0  0  0  0  0  0  0  0  0  0  0
    1.5163    1.0598    2.0105 H   0  0  0  0  0  0  0  0  0  0  0  0
   -0.4795    1.1023    1.1039 C   0  0  0  0  0  0  0  0  0  0  0  0
   -0.6163    2.0649    0.6136 H   0  0  0  0  0  0  0  0  0  0  0  0
   -0.8747    1.1891    2.1181 H   0  0  0  0  0  0  0  0  0  0  0  0
   -1.1821   -0.0528    0.3933 C   0  0  0  0  0  0  0  0  0  0  0  0
   -0.9489   -0.0268   -0.6738 H   0  0  0  0  0  0  0  0  0  0  0  0
   -2.2657   -0.0336    0.5013 H   0  0  0  0  0  0  0  0  0  0  0  0
   -0.5307   -1.2749    1.0393 C   0  0  0  0  0  0  0  0  0  0  0  0
   -0.6904   -2.1970    0.4830 H   0  0  0  0  0  0  0  0  0  0  0  0
   -0.9508   -1.4154    2.0367 H   0  0  0  0  0  0  0  0  0  0  0  0
   -1.1251   -0.3700    5.3714 C   0  0  0  0  0  0  0  0  0  0  0  0
   -1.4582   -0.1333    4.3588 H   0  0  0  0  0  0  0  0  0  0  0  0
   -1.9299   -0.9131    5.8644 H   0  0  0  0  0  0  0  0  0  0  0  0
    0.1885   -1.1656    5.3237 C   0  0  0  0  0  0  0  0  0  0  0  0
    0.2385   -1.8233    4.4575 H   0  0  0  0  0  0  0  0  0  0  0  0
    0.2688   -1.7969    6.2080 H   0  0  0  0  0  0  0  0  0  0  0  0
    1.3178   -0.1029    5.3243 C   0  0  0  0  0  0  0  0  0  0  0  0
    1.9391   -0.1635    4.4324 H   0  0  0  0  0  0  0  0  0  0  0  0
    1.9753   -0.2528    6.1797 H   0  0  0  0  0  0  0  0  0  0  0  0
    0.6077    1.2588    5.4321 C   0  0  0  0  0  0  0  0  0  0  0  0
    0.4278    1.6673    4.4361 H   0  0  0  0  0  0  0  0  0  0  0  0
    1.1881    1.9932    5.9881 H   0  0  0  0  0  0  0  0  0  0  0  0
   -0.7344    0.9243    6.0819 C   0  0  0  0  0  0  0  0  0  0  0  0
   -1.4740    1.7168    5.9771 H   0  0  0  0  0  0  0  0  0  0  0  0
   -0.5943    0.7327    7.1485 H   0  0  0  0  0  0  0  0  0  0  0  0
  1  4  1  0  0  0  0
  1  3  1  0  0  0  0
  2  1  1  0  0  0  0
  4  6  1  0  0  0  0
  5  4  1  0  0  0  0
  7  4  1  0  0  0  0
  7  9  1  0  0  0  0
  8  7  1  0  0  0  0
 10 12  1  0  0  0  0
 10 13  1  0  0  0  0
 10  7  1  0  0  0  0
 11 10  1  0  0  0  0
 13  1  1  0  0  0  0
 13 15  1  0  0  0  0
 14 13  1  0  0  0  0
 16 18  1  0  0  0  0
 16 28  1  0  0  0  0
 17 16  1  0  0  0  0
 19 22  1  0  0  0  0
 19 16  1  0  0  0  0
 19 21  1  0  0  0  0
 20 19  1  0  0  0  0
 22 25  1  0  0  0  0
 22 24  1  0  0  0  0
 23 22  1  0  0  0  0
 25 27  1  0  0  0  0
 25 28  1  0  0  0  0
 26 25  1  0  0  0  0
 28 30  1  0  0  0  0
 29 28  1  0  0  0  0
M  END
>  <SMILES>
C1CCCC1.C1CCCC1

>  <MoleculeName>
CyclopentaneCyclopentane110

>  <Distance Scale>
1.1

>  <Energy Value>
-2.6

$$$$
/home/S66X8/3067_47BenzeneBenzeneTS090.xyz
 OpenBabel06262409173D

 24 24  0  0  0  0  0  0  0  0999 V2000
    0.7292    1.1131    0.3267 C   0  0  0  0  0  0  0  0  0  0  0  0
    1.3032    2.0142    0.1592 H   0  0  0  0  0  0  0  0  0  0  0  0
    1.3751   -0.1194    0.4128 C   0  0  0  0  0  0  0  0  0  0  0  0
    2.4505   -0.1746    0.3133 H   0  0  0  0  0  0  0  0  0  0  0  0
    0.6350   -1.2806    0.6294 C   0  0  0  0  0  0  0  0  0  0  0  0
    1.1363   -2.2360    0.7002 H   0  0  0  0  0  0  0  0  0  0  0  0
   -0.7510   -1.2097    0.7579 C   0  0  0  0  0  0  0  0  0  0  0  0
   -1.3245   -2.1114    0.9242 H   0  0  0  0  0  0  0  0  0  0  0  0
   -1.3970    0.0227    0.6731 C   0  0  0  0  0  0  0  0  0  0  0  0
   -2.4724    0.0785    0.7740 H   0  0  0  0  0  0  0  0  0  0  0  0
   -0.6569    1.1843    0.4583 C   0  0  0  0  0  0  0  0  0  0  0  0
   -1.1578    2.1406    0.3951 H   0  0  0  0  0  0  0  0  0  0  0  0
    0.1155    0.0905    3.7216 C   0  0  0  0  0  0  0  0  0  0  0  0
    0.2377    0.3160    2.6711 H   0  0  0  0  0  0  0  0  0  0  0  0
   -0.9755   -0.6644    4.1489 C   0  0  0  0  0  0  0  0  0  0  0  0
   -1.6960   -1.0209    3.4252 H   0  0  0  0  0  0  0  0  0  0  0  0
   -1.1362   -0.9585    5.5019 C   0  0  0  0  0  0  0  0  0  0  0  0
   -1.9833   -1.5445    5.8321 H   0  0  0  0  0  0  0  0  0  0  0  0
   -0.2044   -0.4974    6.4304 C   0  0  0  0  0  0  0  0  0  0  0  0
   -0.3282   -0.7254    7.4804 H   0  0  0  0  0  0  0  0  0  0  0  0
    0.8872    0.2577    6.0051 C   0  0  0  0  0  0  0  0  0  0  0  0
    1.6104    0.6155    6.7255 H   0  0  0  0  0  0  0  0  0  0  0  0
    1.0460    0.5511    4.6516 C   0  0  0  0  0  0  0  0  0  0  0  0
    1.8933    1.1372    4.3216 H   0  0  0  0  0  0  0  0  0  0  0  0
  1  3  2  0  0  0  0
  1 11  1  0  0  0  0
  2  1  1  0  0  0  0
  3  5  1  0  0  0  0
  4  3  1  0  0  0  0
  5  6  1  0  0  0  0
  5  7  2  0  0  0  0
  7  8  1  0  0  0  0
  9  7  1  0  0  0  0
  9 10  1  0  0  0  0
 11  9  2  0  0  0  0
 12 11  1  0  0  0  0
 13 15  2  0  0  0  0
 13 23  1  0  0  0  0
 14 13  1  0  0  0  0
 15 17  1  0  0  0  0
 16 15  1  0  0  0  0
 17 18  1  0  0  0  0
 17 19  2  0  0  0  0
 19 20  1  0  0  0  0
 21 19  1  0  0  0  0
 21 22  1  0  0  0  0
 23 21  2  0  0  0  0
 24 23  1  0  0  0  0
M  END
>  <SMILES>
c1ccccc1.c1ccccc1

>  <MoleculeName>
BenzeneBenzeneTS090

>  <Distance Scale>
0.9

>  <Energy Value>
-1.64

$$$$
/home/S66X8/2907_27BenzenePyridinepipi090.xyz
 OpenBabel06262409173D

 23 23  0  0  0  0  0  0  0  0999 V2000
    0.8187    0.8642    0.1883 C   0  0  0  0  0  0  0  0  0  0  0  0
    1.4661    1.7167    0.3447 H   0  0  0  0  0  0  0  0  0  0  0  0
    1.3690   -0.3905   -0.0667 C   0  0  0  0  0  0  0  0  0  0  0  0
    2.4430   -0.5119   -0.1106 H   0  0  0  0  0  0  0  0  0  0  0  0
    0.5344   -1.4885   -0.2719 C   0  0  0  0  0  0  0  0  0  0  0  0
    0.9608   -2.4616   -0.4755 H   0  0  0  0  0  0  0  0  0  0  0  0
   -0.8491   -1.3305   -0.2199 C   0  0  0  0  0  0  0  0  0  0  0  0
   -1.4971   -2.1819   -0.3796 H   0  0  0  0  0  0  0  0  0  0  0  0
   -1.3995   -0.0760    0.0404 C   0  0  0  0  0  0  0  0  0  0  0  0
   -2.4727    0.0449    0.0934 H   0  0  0  0  0  0  0  0  0  0  0  0
   -0.5653    1.0214    0.2423 C   0  0  0  0  0  0  0  0  0  0  0  0
   -0.9926    1.9937    0.4463 H   0  0  0  0  0  0  0  0  0  0  0  0
   -2.2759    0.1022    3.0747 N   0  0  0  0  0  0  0  0  0  0  0  0
   -1.6610    1.2598    3.3548 C   0  0  0  0  0  0  0  0  0  0  0  0
   -2.3086    2.1130    3.5173 H   0  0  0  0  0  0  0  0  0  0  0  0
   -0.2788    1.4007    3.4450 C   0  0  0  0  0  0  0  0  0  0  0  0
    0.1530    2.3643    3.6762 H   0  0  0  0  0  0  0  0  0  0  0  0
    0.5221    0.2837    3.2307 C   0  0  0  0  0  0  0  0  0  0  0  0
    1.5997    0.3541    3.2856 H   0  0  0  0  0  0  0  0  0  0  0  0
   -0.0984   -0.9250    2.9371 C   0  0  0  0  0  0  0  0  0  0  0  0
    0.4774   -1.8206    2.7530 H   0  0  0  0  0  0  0  0  0  0  0  0
   -1.4889   -0.9630    2.8716 C   0  0  0  0  0  0  0  0  0  0  0  0
   -1.9978   -1.8914    2.6428 H   0  0  0  0  0  0  0  0  0  0  0  0
  1 11  1  0  0  0  0
  1  2  1  0  0  0  0
  3  1  2  0  0  0  0
  4  3  1  0  0  0  0
  5  7  2  0  0  0  0
  5  3  1  0  0  0  0
  6  5  1  0  0  0  0
  7  9  1  0  0  0  0
  8  7  1  0  0  0  0
  9 10  1  0  0  0  0
  9 11  2  0  0  0  0
 11 12  1  0  0  0  0
 13 14  1  0  0  0  0
 14 16  2  0  0  0  0
 14 15  1  0  0  0  0
 16 17  1  0  0  0  0
 18 19  1  0  0  0  0
 18 16  1  0  0  0  0
 20 18  2  0  0  0  0
 21 20  1  0  0  0  0
 22 20  1  0  0  0  0
 22 13  2  0  0  0  0
 23 22  1  0  0  0  0
M  END
>  <SMILES>
c1ccccc1.n1ccccc1

>  <MoleculeName>
BenzenePyridinepipi090

>  <Distance Scale>
0.9

>  <Energy Value>
-0.73

$$$$
/home/S66X8/3214_65PyridineEthyne105.xyz
 OpenBabel06262409173D

 15 14  0  0  0  0  0  0  0  0999 V2000
   -0.0830    0.0007    1.0552 N   0  0  0  0  0  0  0  0  0  0  0  0
   -0.2029   -1.1417    0.3649 C   0  0  0  0  0  0  0  0  0  0  0  0
   -0.0985   -2.0551    0.9374 H   0  0  0  0  0  0  0  0  0  0  0  0
   -0.4468   -1.1918   -1.0045 C   0  0  0  0  0  0  0  0  0  0  0  0
   -0.5336   -2.1459   -1.5042 H   0  0  0  0  0  0  0  0  0  0  0  0
   -0.5747    0.0034   -1.7043 C   0  0  0  0  0  0  0  0  0  0  0  0
   -0.7637    0.0045   -2.7687 H   0  0  0  0  0  0  0  0  0  0  0  0
   -0.4535    1.1972   -1.0009 C   0  0  0  0  0  0  0  0  0  0  0  0
   -0.5456    2.1523   -1.4978 H   0  0  0  0  0  0  0  0  0  0  0  0
   -0.2093    1.1445    0.3684 C   0  0  0  0  0  0  0  0  0  0  0  0
   -0.1102    2.0567    0.9436 H   0  0  0  0  0  0  0  0  0  0  0  0
    0.4894   -0.0065    5.6696 C   0  0  0  0  0  0  0  0  0  0  0  0
    0.6048   -0.0059    6.7246 H   0  0  0  0  0  0  0  0  0  0  0  0
    0.3573   -0.0070    4.4634 C   0  0  0  0  0  0  0  0  0  0  0  0
    0.2392   -0.0068    3.3989 H   0  0  0  0  0  0  0  0  0  0  0  0
  2  3  1  0  0  0  0
  2  1  2  0  0  0  0
  4  2  1  0  0  0  0
  5  4  1  0  0  0  0
  6  4  2  0  0  0  0
  6  8  1  0  0  0  0
  7  6  1  0  0  0  0
  8 10  2  0  0  0  0
  9  8  1  0  0  0  0
 10 11  1  0  0  0  0
 10  1  1  0  0  0  0
 12 13  1  0  0  0  0
 14 12  3  0  0  0  0
 15 14  1  0  0  0  0
M  END
>  <SMILES>
n1ccccc1.C#C

>  <MoleculeName>
PyridineEthyne105

>  <Distance Scale>
1.05

>  <Energy Value>
-3.89

$$$$
/home/S66X8/2733_05MeOHMeOH100.xyz
 OpenBabel06262409173D

 12 10  0  0  0  0  0  0  0  0999 V2000
   -0.6361   -0.0233    0.2806 O   0  0  0  0  0  0  0  0  0  0  0  0
    0.3081   -0.0471    0.0765 H   0  0  0  0  0  0  0  0  0  0  0  0
   -1.1521   -1.3113    0.0153 C   0  0  0  0  0  0  0  0  0  0  0  0
   -2.2099   -1.2963    0.2640 H   0  0  0  0  0  0  0  0  0  0  0  0
   -1.0566   -1.5927   -1.0362 H   0  0  0  0  0  0  0  0  0  0  0  0
   -0.6748   -2.0863    0.6205 H   0  0  0  0  0  0  0  0  0  0  0  0
    2.2412   -0.1233   -0.0135 O   0  0  0  0  0  0  0  0  0  0  0  0
    2.7100    0.4910   -0.5832 H   0  0  0  0  0  0  0  0  0  0  0  0
    2.7501    0.0337    1.3082 C   0  0  0  0  0  0  0  0  0  0  0  0
    2.1965   -0.6545    1.9383 H   0  0  0  0  0  0  0  0  0  0  0  0
    3.8091   -0.2168    1.3649 H   0  0  0  0  0  0  0  0  0  0  0  0
    2.5976    1.0444    1.6861 H   0  0  0  0  0  0  0  0  0  0  0  0
  2  1  1  0  0  0  0
  3  4  1  0  0  0  0
  3  1  1  0  0  0  0
  3  6  1  0  0  0  0
  5  3  1  0  0  0  0
  7  9  1  0  0  0  0
  8  7  1  0  0  0  0
  9 11  1  0  0  0  0
  9 12  1  0  0  0  0
  9 10  1  0  0  0  0
M  END
>  <SMILES>
OC.OC

>  <MoleculeName>
MeOHMeOH100

>  <Distance Scale>
1.0

>  <Energy Value>
-5.75

$$$$
/home/S66X8/3014_40BenzeneNeopentane105.xyz
 OpenBabel06262409173D

 29 28  0  0  0  0  0  0  0  0999 V2000
    0.3120    0.5610    0.4967 C   0  0  0  0  0  0  0  0  0  0  0  0
    0.7421    1.5534    0.4816 H   0  0  0  0  0  0  0  0  0  0  0  0
    1.1422   -0.5581    0.5361 C   0  0  0  0  0  0  0  0  0  0  0  0
    2.2165   -0.4343    0.5524 H   0  0  0  0  0  0  0  0  0  0  0  0
    0.5878   -1.8367    0.5541 C   0  0  0  0  0  0  0  0  0  0  0  0
    1.2319   -2.7048    0.5852 H   0  0  0  0  0  0  0  0  0  0  0  0
   -0.7967   -1.9964    0.5330 C   0  0  0  0  0  0  0  0  0  0  0  0
   -1.2268   -2.9884    0.5486 H   0  0  0  0  0  0  0  0  0  0  0  0
   -1.6269   -0.8775    0.4942 C   0  0  0  0  0  0  0  0  0  0  0  0
   -2.7011   -1.0013    0.4798 H   0  0  0  0  0  0  0  0  0  0  0  0
   -1.0727    0.4012    0.4760 C   0  0  0  0  0  0  0  0  0  0  0  0
   -1.7170    1.2694    0.4459 H   0  0  0  0  0  0  0  0  0  0  0  0
    0.1644    0.5013    4.9840 C   0  0  0  0  0  0  0  0  0  0  0  0
    1.6107    0.6801    4.5291 C   0  0  0  0  0  0  0  0  0  0  0  0
    2.0265    1.6134    4.9125 H   0  0  0  0  0  0  0  0  0  0  0  0
    2.2341   -0.1405    4.8879 H   0  0  0  0  0  0  0  0  0  0  0  0
    1.6713    0.6995    3.4401 H   0  0  0  0  0  0  0  0  0  0  0  0
    0.1100    0.4699    6.5089 C   0  0  0  0  0  0  0  0  0  0  0  0
   -0.9157    0.3425    6.8580 H   0  0  0  0  0  0  0  0  0  0  0  0
    0.7055   -0.3557    6.9015 H   0  0  0  0  0  0  0  0  0  0  0  0
    0.4983    1.3978    6.9318 H   0  0  0  0  0  0  0  0  0  0  0  0
   -0.3849   -0.8082    4.4237 C   0  0  0  0  0  0  0  0  0  0  0  0
   -1.4198   -0.9585    4.7364 H   0  0  0  0  0  0  0  0  0  0  0  0
    0.2015   -1.6572    4.7795 H   0  0  0  0  0  0  0  0  0  0  0  0
   -0.3562   -0.8086    3.3334 H   0  0  0  0  0  0  0  0  0  0  0  0
   -0.6769    1.6659    4.4678 C   0  0  0  0  0  0  0  0  0  0  0  0
   -0.6554    1.7019    3.3778 H   0  0  0  0  0  0  0  0  0  0  0  0
   -1.7167    1.5621    4.7823 H   0  0  0  0  0  0  0  0  0  0  0  0
   -0.3013    2.6166    4.8499 H   0  0  0  0  0  0  0  0  0  0  0  0
  1  3  1  0  0  0  0
  2  1  1  0  0  0  0
  3  4  1  0  0  0  0
  3  5  2  0  0  0  0
  5  6  1  0  0  0  0
  7  8  1  0  0  0  0
  7  5  1  0  0  0  0
  9  7  2  0  0  0  0
 10  9  1  0  0  0  0
 11  9  1  0  0  0  0
 11  1  2  0  0  0  0
 12 11  1  0  0  0  0
 13 18  1  0  0  0  0
 14 16  1  0  0  0  0
 14 15  1  0  0  0  0
 14 13  1  0  0  0  0
 17 14  1  0  0  0  0
 18 19  1  0  0  0  0
 18 20  1  0  0  0  0
 18 21  1  0  0  0  0
 22 23  1  0  0  0  0
 22 24  1  0  0  0  0
 22 13  1  0  0  0  0
 25 22  1  0  0  0  0
 26 28  1  0  0  0  0
 26 29  1  0  0  0  0
 26 13  1  0  0  0  0
 27 26  1  0  0  0  0
M  END
>  <SMILES>
c1ccccc1.C(C)(C)(C)C

>  <MoleculeName>
BenzeneNeopentane105

>  <Distance Scale>
1.05

>  <Energy Value>
-2.8

$$$$
/home/S66X8/2742_06MeOHMeNH2105.xyz
 OpenBabel06262409173D

 13 11  0  0  0  0  0  0  0  0999 V2000
   -0.7069    0.0458    0.0064 O   0  0  0  0  0  0  0  0  0  0  0  0
    0.2656    0.0717    0.0013 H   0  0  0  0  0  0  0  0  0  0  0  0
   -1.0767   -1.3139    0.0016 C   0  0  0  0  0  0  0  0  0  0  0  0
   -2.1629   -1.3632    0.0059 H   0  0  0  0  0  0  0  0  0  0  0  0
   -0.7234   -1.8447   -0.8877 H   0  0  0  0  0  0  0  0  0  0  0  0
   -0.7161   -1.8528    0.8831 H   0  0  0  0  0  0  0  0  0  0  0  0
    2.3303   -0.0436   -0.0037 N   0  0  0  0  0  0  0  0  0  0  0  0
    2.7009    0.4641    0.7895 H   0  0  0  0  0  0  0  0  0  0  0  0
    2.7011    0.4207   -0.8229 H   0  0  0  0  0  0  0  0  0  0  0  0
    2.8081   -1.4297    0.0338 C   0  0  0  0  0  0  0  0  0  0  0  0
    2.4162   -1.9637   -0.8284 H   0  0  0  0  0  0  0  0  0  0  0  0
    3.8948   -1.5364    0.0368 H   0  0  0  0  0  0  0  0  0  0  0  0
    2.4160   -1.9164    0.9234 H   0  0  0  0  0  0  0  0  0  0  0  0
  2  1  1  0  0  0  0
  3  4  1  0  0  0  0
  3  1  1  0  0  0  0
  3  6  1  0  0  0  0
  5  3  1  0  0  0  0
  7 10  1  0  0  0  0
  7  8  1  0  0  0  0
  9  7  1  0  0  0  0
 10 12  1  0  0  0  0
 10 13  1  0  0  0  0
 11 10  1  0  0  0  0
M  END
>  <SMILES>
OC.NC

>  <MoleculeName>
MeOHMeNH2105

>  <Distance Scale>
1.05

>  <Energy Value>
-7.34

$$$$
/home/S66X8/2857_20AcOHAcOH150.xyz
 OpenBabel06262409173D

 16 14  0  0  0  0  0  0  0  0999 V2000
   -1.0617    1.2971    0.2921 C   0  0  0  0  0  0  0  0  0  0  0  0
   -0.3582    2.2705    0.5318 O   0  0  0  0  0  0  0  0  0  0  0  0
   -0.5893    0.0949    0.0038 O   0  0  0  0  0  0  0  0  0  0  0  0
    0.4044    0.1277    0.0184 H   0  0  0  0  0  0  0  0  0  0  0  0
   -2.5584    1.3425    0.2963 C   0  0  0  0  0  0  0  0  0  0  0  0
   -2.8960    2.3475    0.5183 H   0  0  0  0  0  0  0  0  0  0  0  0
   -2.9329    1.0224   -0.6730 H   0  0  0  0  0  0  0  0  0  0  0  0
   -2.9372    0.6449    1.0396 H   0  0  0  0  0  0  0  0  0  0  0  0
    3.6454    1.1122    0.2777 C   0  0  0  0  0  0  0  0  0  0  0  0
    2.9418    0.1389    0.0379 O   0  0  0  0  0  0  0  0  0  0  0  0
    3.1730    2.3146    0.5655 O   0  0  0  0  0  0  0  0  0  0  0  0
    2.1792    2.2817    0.5511 H   0  0  0  0  0  0  0  0  0  0  0  0
    5.1421    1.0663    0.2758 C   0  0  0  0  0  0  0  0  0  0  0  0
    5.4797    0.0650    0.0382 H   0  0  0  0  0  0  0  0  0  0  0  0
    5.5236    1.7767   -0.4537 H   0  0  0  0  0  0  0  0  0  0  0  0
    5.5136    1.3690    1.2518 H   0  0  0  0  0  0  0  0  0  0  0  0
  1  5  1  0  0  0  0
  1  2  2  0  0  0  0
  3  4  1  0  0  0  0
  3  1  1  0  0  0  0
  5  6  1  0  0  0  0
  5  8  1  0  0  0  0
  7  5  1  0  0  0  0
  9 11  1  0  0  0  0
 10  9  2  0  0  0  0
 12 11  1  0  0  0  0
 13  9  1  0  0  0  0
 13 16  1  0  0  0  0
 14 13  1  0  0  0  0
 15 13  1  0  0  0  0
M  END
>  <SMILES>
C(=O)(O)C.C(=O)(O)C

>  <MoleculeName>
AcOHAcOH150

>  <Distance Scale>
1.5

>  <Energy Value>
-9.21

$$$$
/home/S66X8/2760_08MeOHWater125.xyz
 OpenBabel06262409173D

  9  7  0  0  0  0  0  0  0  0999 V2000
   -0.7866    0.0452   -0.0072 O   0  0  0  0  0  0  0  0  0  0  0  0
    0.1777    0.0127   -0.0068 H   0  0  0  0  0  0  0  0  0  0  0  0
   -1.2480   -1.2903    0.0011 C   0  0  0  0  0  0  0  0  0  0  0  0
   -2.3343   -1.2589    0.0002 H   0  0  0  0  0  0  0  0  0  0  0  0
   -0.9260   -1.8498   -0.8804 H   0  0  0  0  0  0  0  0  0  0  0  0
   -0.9270   -1.8385    0.8901 H   0  0  0  0  0  0  0  0  0  0  0  0
    2.6580   -0.0687   -0.0042 O   0  0  0  0  0  0  0  0  0  0  0  0
    3.0972    0.3195   -0.7640 H   0  0  0  0  0  0  0  0  0  0  0  0
    3.0959    0.3339    0.7489 H   0  0  0  0  0  0  0  0  0  0  0  0
  1  2  1  0  0  0  0
  1  3  1  0  0  0  0
  3  6  1  0  0  0  0
  4  3  1  0  0  0  0
  5  3  1  0  0  0  0
  7  9  1  0  0  0  0
  8  7  1  0  0  0  0
M  END
>  <SMILES>
OC.O

>  <MoleculeName>
MeOHWater125

>  <Distance Scale>
1.25

>  <Energy Value>
-3.59

$$$$
/home/S66X8/3094_50BenzeneEthyneCHpi105.xyz
 OpenBabel06262409173D

 16 15  0  0  0  0  0  0  0  0999 V2000
    0.8366    1.1149    0.2310 C   0  0  0  0  0  0  0  0  0  0  0  0
    1.4855    1.9797    0.2147 H   0  0  0  0  0  0  0  0  0  0  0  0
    1.3842   -0.1670    0.2601 C   0  0  0  0  0  0  0  0  0  0  0  0
    2.4577   -0.2963    0.2661 H   0  0  0  0  0  0  0  0  0  0  0  0
    0.5475   -1.2818    0.2869 C   0  0  0  0  0  0  0  0  0  0  0  0
    0.9719   -2.2760    0.3139 H   0  0  0  0  0  0  0  0  0  0  0  0
   -0.8367   -1.1150    0.2846 C   0  0  0  0  0  0  0  0  0  0  0  0
   -1.4856   -1.9796    0.3097 H   0  0  0  0  0  0  0  0  0  0  0  0
   -1.3842    0.1669    0.2556 C   0  0  0  0  0  0  0  0  0  0  0  0
   -2.4576    0.2965    0.2585 H   0  0  0  0  0  0  0  0  0  0  0  0
   -0.5475    1.2817    0.2290 C   0  0  0  0  0  0  0  0  0  0  0  0
   -0.9721    2.2760    0.2112 H   0  0  0  0  0  0  0  0  0  0  0  0
    0.0060    0.0784    3.9172 C   0  0  0  0  0  0  0  0  0  0  0  0
    0.0030    0.0608    2.8531 H   0  0  0  0  0  0  0  0  0  0  0  0
    0.0097    0.0980    5.1296 C   0  0  0  0  0  0  0  0  0  0  0  0
    0.0128    0.1151    6.1908 H   0  0  0  0  0  0  0  0  0  0  0  0
  1  3  1  0  0  0  0
  2  1  1  0  0  0  0
  3  4  1  0  0  0  0
  3  5  2  0  0  0  0
  5  6  1  0  0  0  0
  7  5  1  0  0  0  0
  7  8  1  0  0  0  0
  9 10  1  0  0  0  0
  9  7  2  0  0  0  0
 11  1  2  0  0  0  0
 11  9  1  0  0  0  0
 12 11  1  0  0  0  0
 13 15  3  0  0  0  0
 14 13  1  0  0  0  0
 15 16  1  0  0  0  0
M  END
>  <SMILES>
c1ccccc1.C#C

>  <MoleculeName>
BenzeneEthyneCHpi105

>  <Distance Scale>
1.05

>  <Energy Value>
-2.79

$$$$
/home/S66X8/2883_24BenzeneBenzenepipi090.xyz
 OpenBabel06262409173D

 24 24  0  0  0  0  0  0  0  0999 V2000
    0.7126    1.1210    0.0605 C   0  0  0  0  0  0  0  0  0  0  0  0
    1.3578    1.9864    0.1277 H   0  0  0  0  0  0  0  0  0  0  0  0
    1.2582   -0.1593    0.1242 C   0  0  0  0  0  0  0  0  0  0  0  0
    2.3250   -0.2871    0.2467 H   0  0  0  0  0  0  0  0  0  0  0  0
    0.4269   -1.2745    0.0427 C   0  0  0  0  0  0  0  0  0  0  0  0
    0.8504   -2.2684    0.0947 H   0  0  0  0  0  0  0  0  0  0  0  0
   -0.9496   -1.1101   -0.1003 C   0  0  0  0  0  0  0  0  0  0  0  0
   -1.5945   -1.9763   -0.1637 H   0  0  0  0  0  0  0  0  0  0  0  0
   -1.4955    0.1711   -0.1615 C   0  0  0  0  0  0  0  0  0  0  0  0
   -2.5638    0.2992   -0.2737 H   0  0  0  0  0  0  0  0  0  0  0  0
   -0.6638    1.2866   -0.0834 C   0  0  0  0  0  0  0  0  0  0  0  0
   -1.0869    2.2810   -0.1329 H   0  0  0  0  0  0  0  0  0  0  0  0
    1.8275    1.1113    3.2519 C   0  0  0  0  0  0  0  0  0  0  0  0
    2.4724    1.9774    3.3156 H   0  0  0  0  0  0  0  0  0  0  0  0
    2.3735   -0.1699    3.3134 C   0  0  0  0  0  0  0  0  0  0  0  0
    3.4417   -0.2980    3.4261 H   0  0  0  0  0  0  0  0  0  0  0  0
    1.5418   -1.2855    3.2348 C   0  0  0  0  0  0  0  0  0  0  0  0
    1.9649   -2.2798    3.2844 H   0  0  0  0  0  0  0  0  0  0  0  0
    0.1654   -1.1199    3.0900 C   0  0  0  0  0  0  0  0  0  0  0  0
   -0.4797   -1.9853    3.0224 H   0  0  0  0  0  0  0  0  0  0  0  0
   -0.3802    0.1604    3.0261 C   0  0  0  0  0  0  0  0  0  0  0  0
   -1.4468    0.2882    2.9029 H   0  0  0  0  0  0  0  0  0  0  0  0
    0.4511    1.2757    3.1081 C   0  0  0  0  0  0  0  0  0  0  0  0
    0.0276    2.2696    3.0558 H   0  0  0  0  0  0  0  0  0  0  0  0
  1  3  1  0  0  0  0
  1  2  1  0  0  0  0
  3  4  1  0  0  0  0
  5  6  1  0  0  0  0
  5  3  2  0  0  0  0
  7  5  1  0  0  0  0
  8  7  1  0  0  0  0
  9  7  2  0  0  0  0
  9 11  1  0  0  0  0
 10  9  1  0  0  0  0
 11  1  2  0  0  0  0
 12 11  1  0  0  0  0
 13 15  1  0  0  0  0
 13 14  1  0  0  0  0
 15 16  1  0  0  0  0
 17 18  1  0  0  0  0
 17 15  2  0  0  0  0
 19 17  1  0  0  0  0
 20 19  1  0  0  0  0
 21 19  2  0  0  0  0
 21 23  1  0  0  0  0
 22 21  1  0  0  0  0
 23 13  2  0  0  0  0
 24 23  1  0  0  0  0
M  END
>  <SMILES>
c1ccccc1.c1ccccc1

>  <MoleculeName>
BenzeneBenzenepipi090

>  <Distance Scale>
0.9

>  <Energy Value>
-0.23

$$$$
/home/S66X8/3018_40BenzeneNeopentane200.xyz
 OpenBabel06262409173D

 29 28  0  0  0  0  0  0  0  0999 V2000
    0.3120    0.5610    0.4967 C   0  0  0  0  0  0  0  0  0  0  0  0
    0.7421    1.5534    0.4816 H   0  0  0  0  0  0  0  0  0  0  0  0
    1.1422   -0.5581    0.5361 C   0  0  0  0  0  0  0  0  0  0  0  0
    2.2165   -0.4343    0.5524 H   0  0  0  0  0  0  0  0  0  0  0  0
    0.5878   -1.8367    0.5541 C   0  0  0  0  0  0  0  0  0  0  0  0
    1.2319   -2.7048    0.5852 H   0  0  0  0  0  0  0  0  0  0  0  0
   -0.7967   -1.9964    0.5330 C   0  0  0  0  0  0  0  0  0  0  0  0
   -1.2268   -2.9884    0.5486 H   0  0  0  0  0  0  0  0  0  0  0  0
   -1.6269   -0.8775    0.4942 C   0  0  0  0  0  0  0  0  0  0  0  0
   -2.7011   -1.0013    0.4798 H   0  0  0  0  0  0  0  0  0  0  0  0
   -1.0727    0.4012    0.4760 C   0  0  0  0  0  0  0  0  0  0  0  0
   -1.7170    1.2694    0.4459 H   0  0  0  0  0  0  0  0  0  0  0  0
    0.0457    0.4064    7.9261 C   0  0  0  0  0  0  0  0  0  0  0  0
    1.4919    0.5852    7.4712 C   0  0  0  0  0  0  0  0  0  0  0  0
    1.9078    1.5185    7.8546 H   0  0  0  0  0  0  0  0  0  0  0  0
    2.1153   -0.2354    7.8300 H   0  0  0  0  0  0  0  0  0  0  0  0
    1.5525    0.6046    6.3822 H   0  0  0  0  0  0  0  0  0  0  0  0
   -0.0087    0.3751    9.4510 C   0  0  0  0  0  0  0  0  0  0  0  0
   -1.0345    0.2476    9.8001 H   0  0  0  0  0  0  0  0  0  0  0  0
    0.5867   -0.4506    9.8435 H   0  0  0  0  0  0  0  0  0  0  0  0
    0.3796    1.3029    9.8739 H   0  0  0  0  0  0  0  0  0  0  0  0
   -0.5037   -0.9031    7.3658 C   0  0  0  0  0  0  0  0  0  0  0  0
   -1.5386   -1.0533    7.6785 H   0  0  0  0  0  0  0  0  0  0  0  0
    0.0827   -1.7520    7.7216 H   0  0  0  0  0  0  0  0  0  0  0  0
   -0.4749   -0.9035    6.2755 H   0  0  0  0  0  0  0  0  0  0  0  0
   -0.7957    1.5710    7.4099 C   0  0  0  0  0  0  0  0  0  0  0  0
   -0.7742    1.6070    6.3199 H   0  0  0  0  0  0  0  0  0  0  0  0
   -1.8355    1.4672    7.7244 H   0  0  0  0  0  0  0  0  0  0  0  0
   -0.4201    2.5217    7.7920 H   0  0  0  0  0  0  0  0  0  0  0  0
  1  3  1  0  0  0  0
  2  1  1  0  0  0  0
  3  4  1  0  0  0  0
  3  5  2  0  0  0  0
  5  6  1  0  0  0  0
  7  8  1  0  0  0  0
  7  5  1  0  0  0  0
  9  7  2  0  0  0  0
 10  9  1  0  0  0  0
 11  9  1  0  0  0  0
 11  1  2  0  0  0  0
 12 11  1  0  0  0  0
 13 18  1  0  0  0  0
 14 16  1  0  0  0  0
 14 15  1  0  0  0  0
 14 13  1  0  0  0  0
 17 14  1  0  0  0  0
 18 19  1  0  0  0  0
 18 20  1  0  0  0  0
 18 21  1  0  0  0  0
 22 23  1  0  0  0  0
 22 24  1  0  0  0  0
 22 13  1  0  0  0  0
 25 22  1  0  0  0  0
 26 28  1  0  0  0  0
 26 29  1  0  0  0  0
 26 13  1  0  0  0  0
 27 26  1  0  0  0  0
M  END
>  <SMILES>
c1ccccc1.C(C)(C)(C)C

>  <MoleculeName>
BenzeneNeopentane200

>  <Distance Scale>
2.0

>  <Energy Value>
-0.19

$$$$
/home/S66X8/2805_14PeptideMeNH2100.xyz
 OpenBabel06262409173D

 19 17  0  0  0  0  0  0  0  0999 V2000
   -0.7786   -0.4633    2.4904 C   0  0  0  0  0  0  0  0  0  0  0  0
    0.2247   -0.0510    2.4135 H   0  0  0  0  0  0  0  0  0  0  0  0
   -0.7225   -1.4871    2.8546 H   0  0  0  0  0  0  0  0  0  0  0  0
   -1.3519    0.1108    3.2137 H   0  0  0  0  0  0  0  0  0  0  0  0
   -1.5205   -0.4566    1.1723 C   0  0  0  0  0  0  0  0  0  0  0  0
   -2.7008   -0.7836    1.0896 O   0  0  0  0  0  0  0  0  0  0  0  0
   -0.7920   -0.0696    0.1006 N   0  0  0  0  0  0  0  0  0  0  0  0
    0.1941    0.1457    0.2029 H   0  0  0  0  0  0  0  0  0  0  0  0
   -1.3978   -0.0561   -1.2113 C   0  0  0  0  0  0  0  0  0  0  0  0
   -2.3149    0.5289   -1.1997 H   0  0  0  0  0  0  0  0  0  0  0  0
   -0.6988    0.3873   -1.9154 H   0  0  0  0  0  0  0  0  0  0  0  0
   -1.6530   -1.0615   -1.5454 H   0  0  0  0  0  0  0  0  0  0  0  0
    2.2554    0.2555    0.2832 N   0  0  0  0  0  0  0  0  0  0  0  0
    2.6590    0.7954    1.0384 H   0  0  0  0  0  0  0  0  0  0  0  0
    2.6734    0.6229   -0.5625 H   0  0  0  0  0  0  0  0  0  0  0  0
    2.6277   -1.1557    0.4369 C   0  0  0  0  0  0  0  0  0  0  0  0
    2.2014   -1.7267   -0.3844 H   0  0  0  0  0  0  0  0  0  0  0  0
    3.7031   -1.3424    0.4627 H   0  0  0  0  0  0  0  0  0  0  0  0
    2.1932   -1.5401    1.3568 H   0  0  0  0  0  0  0  0  0  0  0  0
  1  3  1  0  0  0  0
  1  4  1  0  0  0  0
  2  1  1  0  0  0  0
  5  1  1  0  0  0  0
  6  5  2  0  0  0  0
  7  8  1  0  0  0  0
  7  5  1  0  0  0  0
  9 10  1  0  0  0  0
  9  7  1  0  0  0  0
 11  9  1  0  0  0  0
 12  9  1  0  0  0  0
 13 16  1  0  0  0  0
 13 14  1  0  0  0  0
 15 13  1  0  0  0  0
 16 18  1  0  0  0  0
 16 19  1  0  0  0  0
 17 16  1  0  0  0  0
M  END
>  <SMILES>
CC(=O)NC.NC

>  <MoleculeName>
PeptideMeNH2100

>  <Distance Scale>
1.0

>  <Energy Value>
-7.45

$$$$
/home/S66X8/2736_05MeOHMeOH125.xyz
 OpenBabel06262409173D

 12 10  0  0  0  0  0  0  0  0999 V2000
   -0.6361   -0.0233    0.2806 O   0  0  0  0  0  0  0  0  0  0  0  0
    0.3081   -0.0471    0.0765 H   0  0  0  0  0  0  0  0  0  0  0  0
   -1.1521   -1.3113    0.0153 C   0  0  0  0  0  0  0  0  0  0  0  0
   -2.2099   -1.2963    0.2640 H   0  0  0  0  0  0  0  0  0  0  0  0
   -1.0566   -1.5927   -1.0362 H   0  0  0  0  0  0  0  0  0  0  0  0
   -0.6748   -2.0863    0.6205 H   0  0  0  0  0  0  0  0  0  0  0  0
    2.7247   -0.1424   -0.0360 O   0  0  0  0  0  0  0  0  0  0  0  0
    3.1935    0.4720   -0.6057 H   0  0  0  0  0  0  0  0  0  0  0  0
    3.2335    0.0146    1.2857 C   0  0  0  0  0  0  0  0  0  0  0  0
    2.6799   -0.6736    1.9158 H   0  0  0  0  0  0  0  0  0  0  0  0
    4.2925   -0.2358    1.3424 H   0  0  0  0  0  0  0  0  0  0  0  0
    3.0811    1.0253    1.6636 H   0  0  0  0  0  0  0  0  0  0  0  0
  2  1  1  0  0  0  0
  3  4  1  0  0  0  0
  3  1  1  0  0  0  0
  3  6  1  0  0  0  0
  5  3  1  0  0  0  0
  7  9  1  0  0  0  0
  8  7  1  0  0  0  0
  9 11  1  0  0  0  0
  9 12  1  0  0  0  0
  9 10  1  0  0  0  0
M  END
>  <SMILES>
OC.OC

>  <MoleculeName>
MeOHMeOH125

>  <Distance Scale>
1.25

>  <Energy Value>
-4.14

$$$$
/home/S66X8/3179_61PentaneAcOH090.xyz
 OpenBabel06262409173D

 25 23  0  0  0  0  0  0  0  0999 V2000
   -2.2753   -0.1351    0.8313 C   0  0  0  0  0  0  0  0  0  0  0  0
   -2.4907   -0.7279   -0.0576 H   0  0  0  0  0  0  0  0  0  0  0  0
   -2.2263   -0.8184    1.6788 H   0  0  0  0  0  0  0  0  0  0  0  0
   -3.1120    0.5449    0.9874 H   0  0  0  0  0  0  0  0  0  0  0  0
   -0.9617    0.6193    0.6694 C   0  0  0  0  0  0  0  0  0  0  0  0
   -0.7887    1.2504    1.5447 H   0  0  0  0  0  0  0  0  0  0  0  0
   -1.0262    1.2954   -0.1865 H   0  0  0  0  0  0  0  0  0  0  0  0
    0.2265   -0.3147    0.4800 C   0  0  0  0  0  0  0  0  0  0  0  0
    0.3094   -0.9751    1.3480 H   0  0  0  0  0  0  0  0  0  0  0  0
    0.0392   -0.9660   -0.3788 H   0  0  0  0  0  0  0  0  0  0  0  0
    1.5430    0.4212    0.2690 C   0  0  0  0  0  0  0  0  0  0  0  0
    1.7116    1.1078    1.1024 H   0  0  0  0  0  0  0  0  0  0  0  0
    1.4661    1.0437   -0.6253 H   0  0  0  0  0  0  0  0  0  0  0  0
    2.7276   -0.5269    0.1375 C   0  0  0  0  0  0  0  0  0  0  0  0
    2.5887   -1.2032   -0.7058 H   0  0  0  0  0  0  0  0  0  0  0  0
    3.6615    0.0117   -0.0160 H   0  0  0  0  0  0  0  0  0  0  0  0
    2.8352   -1.1374    1.0341 H   0  0  0  0  0  0  0  0  0  0  0  0
   -0.4522   -0.2797    3.9605 C   0  0  0  0  0  0  0  0  0  0  0  0
   -0.8748   -1.3949    3.7634 O   0  0  0  0  0  0  0  0  0  0  0  0
   -1.2659    0.7792    4.1931 O   0  0  0  0  0  0  0  0  0  0  0  0
   -2.1666    0.4249    4.1526 H   0  0  0  0  0  0  0  0  0  0  0  0
    0.9881    0.1299    3.9777 C   0  0  0  0  0  0  0  0  0  0  0  0
    1.6139   -0.7402    3.8196 H   0  0  0  0  0  0  0  0  0  0  0  0
    1.1641    0.8642    3.1946 H   0  0  0  0  0  0  0  0  0  0  0  0
    1.2254    0.5992    4.9295 H   0  0  0  0  0  0  0  0  0  0  0  0
  1  4  1  0  0  0  0
  1  3  1  0  0  0  0
  2  1  1  0  0  0  0
  5  1  1  0  0  0  0
  5  6  1  0  0  0  0
  7  5  1  0  0  0  0
  8  5  1  0  0  0  0
  8  9  1  0  0  0  0
 10  8  1  0  0  0  0
 11  8  1  0  0  0  0
 11 12  1  0  0  0  0
 13 11  1  0  0  0  0
 14 11  1  0  0  0  0
 14 17  1  0  0  0  0
 15 14  1  0  0  0  0
 16 14  1  0  0  0  0
 18 22  1  0  0  0  0
 18 20  1  0  0  0  0
 19 18  2  0  0  0  0
 21 20  1  0  0  0  0
 22 25  1  0  0  0  0
 23 22  1  0  0  0  0
 24 22  1  0  0  0  0
M  END
>  <SMILES>
CCCCC.C(=O)(O)C

>  <MoleculeName>
PentaneAcOH090

>  <Distance Scale>
0.9

>  <Energy Value>
-2.7

$$$$
/home/S66X8/2755_08MeOHWater090.xyz
 OpenBabel06262409173D

  9  7  0  0  0  0  0  0  0  0999 V2000
   -0.7866    0.0452   -0.0072 O   0  0  0  0  0  0  0  0  0  0  0  0
    0.1777    0.0127   -0.0068 H   0  0  0  0  0  0  0  0  0  0  0  0
   -1.2480   -1.2903    0.0011 C   0  0  0  0  0  0  0  0  0  0  0  0
   -2.3343   -1.2589    0.0002 H   0  0  0  0  0  0  0  0  0  0  0  0
   -0.9260   -1.8498   -0.8804 H   0  0  0  0  0  0  0  0  0  0  0  0
   -0.9270   -1.8385    0.8901 H   0  0  0  0  0  0  0  0  0  0  0  0
    1.9635   -0.0459   -0.0049 O   0  0  0  0  0  0  0  0  0  0  0  0
    2.4027    0.3422   -0.7648 H   0  0  0  0  0  0  0  0  0  0  0  0
    2.4014    0.3567    0.7482 H   0  0  0  0  0  0  0  0  0  0  0  0
  1  2  1  0  0  0  0
  1  3  1  0  0  0  0
  3  6  1  0  0  0  0
  4  3  1  0  0  0  0
  5  3  1  0  0  0  0
  7  9  1  0  0  0  0
  8  7  1  0  0  0  0
M  END
>  <SMILES>
OC.O

>  <MoleculeName>
MeOHWater090

>  <Distance Scale>
0.9

>  <Energy Value>
-4.59

$$$$
/home/S66X8/2911_27BenzenePyridinepipi110.xyz
 OpenBabel06262409173D

 23 23  0  0  0  0  0  0  0  0999 V2000
    0.8187    0.8642    0.1883 C   0  0  0  0  0  0  0  0  0  0  0  0
    1.4661    1.7167    0.3447 H   0  0  0  0  0  0  0  0  0  0  0  0
    1.3690   -0.3905   -0.0667 C   0  0  0  0  0  0  0  0  0  0  0  0
    2.4430   -0.5119   -0.1106 H   0  0  0  0  0  0  0  0  0  0  0  0
    0.5344   -1.4885   -0.2719 C   0  0  0  0  0  0  0  0  0  0  0  0
    0.9608   -2.4616   -0.4755 H   0  0  0  0  0  0  0  0  0  0  0  0
   -0.8491   -1.3305   -0.2199 C   0  0  0  0  0  0  0  0  0  0  0  0
   -1.4971   -2.1819   -0.3796 H   0  0  0  0  0  0  0  0  0  0  0  0
   -1.3995   -0.0760    0.0404 C   0  0  0  0  0  0  0  0  0  0  0  0
   -2.4727    0.0449    0.0934 H   0  0  0  0  0  0  0  0  0  0  0  0
   -0.5653    1.0214    0.2423 C   0  0  0  0  0  0  0  0  0  0  0  0
   -0.9926    1.9937    0.4463 H   0  0  0  0  0  0  0  0  0  0  0  0
   -2.4677    0.1961    3.7724 N   0  0  0  0  0  0  0  0  0  0  0  0
   -1.8528    1.3537    4.0525 C   0  0  0  0  0  0  0  0  0  0  0  0
   -2.5004    2.2069    4.2150 H   0  0  0  0  0  0  0  0  0  0  0  0
   -0.4706    1.4946    4.1426 C   0  0  0  0  0  0  0  0  0  0  0  0
   -0.0388    2.4582    4.3739 H   0  0  0  0  0  0  0  0  0  0  0  0
    0.3303    0.3776    3.9284 C   0  0  0  0  0  0  0  0  0  0  0  0
    1.4079    0.4480    3.9833 H   0  0  0  0  0  0  0  0  0  0  0  0
   -0.2902   -0.8311    3.6348 C   0  0  0  0  0  0  0  0  0  0  0  0
    0.2856   -1.7267    3.4507 H   0  0  0  0  0  0  0  0  0  0  0  0
   -1.6807   -0.8691    3.5693 C   0  0  0  0  0  0  0  0  0  0  0  0
   -2.1896   -1.7976    3.3405 H   0  0  0  0  0  0  0  0  0  0  0  0
  1 11  1  0  0  0  0
  1  2  1  0  0  0  0
  3  1  2  0  0  0  0
  4  3  1  0  0  0  0
  5  7  2  0  0  0  0
  5  3  1  0  0  0  0
  6  5  1  0  0  0  0
  7  9  1  0  0  0  0
  8  7  1  0  0  0  0
  9 10  1  0  0  0  0
  9 11  2  0  0  0  0
 11 12  1  0  0  0  0
 13 14  1  0  0  0  0
 14 16  2  0  0  0  0
 14 15  1  0  0  0  0
 16 17  1  0  0  0  0
 18 19  1  0  0  0  0
 18 16  1  0  0  0  0
 20 18  2  0  0  0  0
 21 20  1  0  0  0  0
 22 20  1  0  0  0  0
 22 13  2  0  0  0  0
 23 22  1  0  0  0  0
M  END
>  <SMILES>
c1ccccc1.n1ccccc1

>  <MoleculeName>
BenzenePyridinepipi110

>  <Distance Scale>
1.1

>  <Energy Value>
-3.13

$$$$
/home/S66X8/2923_29PyridineUracilpipi090.xyz
 OpenBabel06262409173D

 23 23  0  0  0  0  0  0  0  0999 V2000
    1.2108    0.0287    0.3297 N   0  0  0  0  0  0  0  0  0  0  0  0
    0.6119   -1.1584    0.1535 C   0  0  0  0  0  0  0  0  0  0  0  0
    1.2515   -2.0295    0.2193 H   0  0  0  0  0  0  0  0  0  0  0  0
   -0.7513   -1.3086   -0.0888 C   0  0  0  0  0  0  0  0  0  0  0  0
   -1.1704   -2.2969   -0.2134 H   0  0  0  0  0  0  0  0  0  0  0  0
   -1.5479   -0.1699   -0.1565 C   0  0  0  0  0  0  0  0  0  0  0  0
   -2.6110   -0.2460   -0.3388 H   0  0  0  0  0  0  0  0  0  0  0  0
   -0.9436    1.0706    0.0198 C   0  0  0  0  0  0  0  0  0  0  0  0
   -1.5188    1.9845   -0.0116 H   0  0  0  0  0  0  0  0  0  0  0  0
    0.4277    1.1161    0.2573 C   0  0  0  0  0  0  0  0  0  0  0  0
    0.9247    2.0681    0.3975 H   0  0  0  0  0  0  0  0  0  0  0  0
   -0.7461   -0.3028    2.9282 N   0  0  0  0  0  0  0  0  0  0  0  0
   -1.6410   -0.7347    2.7436 H   0  0  0  0  0  0  0  0  0  0  0  0
   -0.7459    1.0950    3.0212 C   0  0  0  0  0  0  0  0  0  0  0  0
   -1.7857    1.7232    2.9064 O   0  0  0  0  0  0  0  0  0  0  0  0
    0.5736    1.6541    3.2488 C   0  0  0  0  0  0  0  0  0  0  0  0
    0.6750    2.7213    3.3447 H   0  0  0  0  0  0  0  0  0  0  0  0
    1.6435    0.8354    3.3203 C   0  0  0  0  0  0  0  0  0  0  0  0
    2.6474    1.2040    3.4687 H   0  0  0  0  0  0  0  0  0  0  0  0
    1.5254   -0.5219    3.2078 N   0  0  0  0  0  0  0  0  0  0  0  0
    2.3389   -1.1141    3.1996 H   0  0  0  0  0  0  0  0  0  0  0  0
    0.3250   -1.1691    2.9814 C   0  0  0  0  0  0  0  0  0  0  0  0
    0.2329   -2.3746    2.8478 O   0  0  0  0  0  0  0  0  0  0  0  0
  2  3  1  0  0  0  0
  2  1  2  0  0  0  0
  4  2  1  0  0  0  0
  5  4  1  0  0  0  0
  6  4  2  0  0  0  0
  6  8  1  0  0  0  0
  7  6  1  0  0  0  0
  8 10  2  0  0  0  0
  9  8  1  0  0  0  0
 10  1  1  0  0  0  0
 10 11  1  0  0  0  0
 12 22  1  0  0  0  0
 12 14  1  0  0  0  0
 13 12  1  0  0  0  0
 14 16  1  0  0  0  0
 15 14  2  0  0  0  0
 16 18  2  0  0  0  0
 16 17  1  0  0  0  0
 18 19  1  0  0  0  0
 20 18  1  0  0  0  0
 21 20  1  0  0  0  0
 22 20  1  0  0  0  0
 23 22  2  0  0  0  0
M  END
>  <SMILES>
n1ccccc1.[nH]1c(=O)cc[nH]c1=O

>  <MoleculeName>
PyridineUracilpipi090

>  <Distance Scale>
0.9

>  <Energy Value>
-3.74

$$$$
/home/S66X8/3209_64PeptideEthene150.xyz
 OpenBabel06262409173D

 18 16  0  0  0  0  0  0  0  0999 V2000
    1.6297    0.5030    0.2701 C   0  0  0  0  0  0  0  0  0  0  0  0
    1.6416    1.4592   -0.2481 H   0  0  0  0  0  0  0  0  0  0  0  0
    2.3153   -0.1836   -0.2176 H   0  0  0  0  0  0  0  0  0  0  0  0
    1.9697    0.6494    1.2940 H   0  0  0  0  0  0  0  0  0  0  0  0
    0.2618   -0.1329    0.3146 C   0  0  0  0  0  0  0  0  0  0  0  0
    0.0993   -1.3096    0.6118 O   0  0  0  0  0  0  0  0  0  0  0  0
   -0.7735    0.7025    0.0221 N   0  0  0  0  0  0  0  0  0  0  0  0
   -0.5690    1.6666   -0.1658 H   0  0  0  0  0  0  0  0  0  0  0  0
   -2.1500    0.2660    0.0951 C   0  0  0  0  0  0  0  0  0  0  0  0
   -2.1447   -0.8194    0.1009 H   0  0  0  0  0  0  0  0  0  0  0  0
   -2.6405    0.6158    1.0036 H   0  0  0  0  0  0  0  0  0  0  0  0
   -2.7077    0.6208   -0.7683 H   0  0  0  0  0  0  0  0  0  0  0  0
    0.1623    0.5051    5.1519 C   0  0  0  0  0  0  0  0  0  0  0  0
    0.1574    1.2473    5.9378 H   0  0  0  0  0  0  0  0  0  0  0  0
   -0.4863    0.6729    4.3032 H   0  0  0  0  0  0  0  0  0  0  0  0
    0.9308   -0.5818    5.2217 C   0  0  0  0  0  0  0  0  0  0  0  0
    1.5761   -0.7536    6.0718 H   0  0  0  0  0  0  0  0  0  0  0  0
    0.9257   -1.3170    4.4294 H   0  0  0  0  0  0  0  0  0  0  0  0
  1  5  1  0  0  0  0
  1  4  1  0  0  0  0
  2  1  1  0  0  0  0
  3  1  1  0  0  0  0
  5  6  2  0  0  0  0
  7  9  1  0  0  0  0
  7  5  1  0  0  0  0
  8  7  1  0  0  0  0
  9 10  1  0  0  0  0
  9 11  1  0  0  0  0
 12  9  1  0  0  0  0
 13 16  2  0  0  0  0
 13 14  1  0  0  0  0
 15 13  1  0  0  0  0
 16 17  1  0  0  0  0
 18 16  1  0  0  0  0
M  END
>  <SMILES>
CC(=O)NC.C=C

>  <MoleculeName>
PeptideEthene150

>  <Distance Scale>
1.5

>  <Energy Value>
-0.88

$$$$
/home/S66X8/3189_62PentaneAcNH2100.xyz
 OpenBabel06262409173D

 26 24  0  0  0  0  0  0  0  0999 V2000
   -2.5878   -0.3231    0.4695 C   0  0  0  0  0  0  0  0  0  0  0  0
   -2.6104   -0.8764   -0.4696 H   0  0  0  0  0  0  0  0  0  0  0  0
   -2.6597   -1.0519    1.2777 H   0  0  0  0  0  0  0  0  0  0  0  0
   -3.4760    0.3056    0.5090 H   0  0  0  0  0  0  0  0  0  0  0  0
   -1.3096    0.4974    0.5851 C   0  0  0  0  0  0  0  0  0  0  0  0
   -1.3173    1.0833    1.5063 H   0  0  0  0  0  0  0  0  0  0  0  0
   -1.2624    1.2156   -0.2368 H   0  0  0  0  0  0  0  0  0  0  0  0
   -0.0568   -0.3683    0.5584 C   0  0  0  0  0  0  0  0  0  0  0  0
   -0.0862   -1.0734    1.3959 H   0  0  0  0  0  0  0  0  0  0  0  0
   -0.0538   -0.9768   -0.3515 H   0  0  0  0  0  0  0  0  0  0  0  0
    1.2316    0.4401    0.6320 C   0  0  0  0  0  0  0  0  0  0  0  0
    1.2133    1.0536    1.5346 H   0  0  0  0  0  0  0  0  0  0  0  0
    1.2663    1.1314   -0.2131 H   0  0  0  0  0  0  0  0  0  0  0  0
    2.4726   -0.4431    0.6192 C   0  0  0  0  0  0  0  0  0  0  0  0
    2.5207   -1.0353   -0.2949 H   0  0  0  0  0  0  0  0  0  0  0  0
    3.3877    0.1441    0.6839 H   0  0  0  0  0  0  0  0  0  0  0  0
    2.4593   -1.1394    1.4586 H   0  0  0  0  0  0  0  0  0  0  0  0
    0.0436    0.2043    4.1830 C   0  0  0  0  0  0  0  0  0  0  0  0
    0.0705    1.3893    3.8912 O   0  0  0  0  0  0  0  0  0  0  0  0
    1.1762   -0.5476    4.2858 N   0  0  0  0  0  0  0  0  0  0  0  0
    2.0471   -0.1250    4.0171 H   0  0  0  0  0  0  0  0  0  0  0  0
    1.1372   -1.5395    4.4172 H   0  0  0  0  0  0  0  0  0  0  0  0
   -1.2466   -0.5347    4.4474 C   0  0  0  0  0  0  0  0  0  0  0  0
   -1.0994   -1.4954    4.9346 H   0  0  0  0  0  0  0  0  0  0  0  0
   -1.7529   -0.6930    3.4966 H   0  0  0  0  0  0  0  0  0  0  0  0
   -1.8846    0.0926    5.0627 H   0  0  0  0  0  0  0  0  0  0  0  0
  1  4  1  0  0  0  0
  1  5  1  0  0  0  0
  1  3  1  0  0  0  0
  2  1  1  0  0  0  0
  5  6  1  0  0  0  0
  7  5  1  0  0  0  0
  8  5  1  0  0  0  0
  8 11  1  0  0  0  0
  8  9  1  0  0  0  0
 10  8  1  0  0  0  0
 11 12  1  0  0  0  0
 13 11  1  0  0  0  0
 14 11  1  0  0  0  0
 14 16  1  0  0  0  0
 14 17  1  0  0  0  0
 15 14  1  0  0  0  0
 18 20  1  0  0  0  0
 18 23  1  0  0  0  0
 19 18  2  0  0  0  0
 20 22  1  0  0  0  0
 21 20  1  0  0  0  0
 23 24  1  0  0  0  0
 23 26  1  0  0  0  0
 25 23  1  0  0  0  0
M  END
>  <SMILES>
CCCCC.C(=O)(N)C

>  <MoleculeName>
PentaneAcNH2100

>  <Distance Scale>
1.0

>  <Energy Value>
-3.51

$$$$
/home/S66X8/2882_23AcNH2Uracil200.xyz
 OpenBabel06262409173D

 21 20  0  0  0  0  0  0  0  0999 V2000
   -1.2327    1.2116   -0.1416 C   0  0  0  0  0  0  0  0  0  0  0  0
   -0.5713    2.2420    0.0256 O   0  0  0  0  0  0  0  0  0  0  0  0
   -0.6706    0.0039   -0.3143 N   0  0  0  0  0  0  0  0  0  0  0  0
    0.3438   -0.0906   -0.3083 H   0  0  0  0  0  0  0  0  0  0  0  0
   -1.2442   -0.8063   -0.4467 H   0  0  0  0  0  0  0  0  0  0  0  0
   -2.7382    1.2668   -0.1559 C   0  0  0  0  0  0  0  0  0  0  0  0
   -3.0780    1.6466    0.8045 H   0  0  0  0  0  0  0  0  0  0  0  0
   -3.2021    0.3029   -0.3462 H   0  0  0  0  0  0  0  0  0  0  0  0
   -3.0500    1.9755   -0.9186 H   0  0  0  0  0  0  0  0  0  0  0  0
    5.9366    1.1436   -0.0976 N   0  0  0  0  0  0  0  0  0  0  0  0
    6.4266    0.2677   -0.2156 H   0  0  0  0  0  0  0  0  0  0  0  0
    6.7402    2.2865    0.0529 C   0  0  0  0  0  0  0  0  0  0  0  0
    7.9558    2.1909    0.0377 O   0  0  0  0  0  0  0  0  0  0  0  0
    5.9676    3.5018    0.2160 C   0  0  0  0  0  0  0  0  0  0  0  0
    6.4894    4.4350    0.3390 H   0  0  0  0  0  0  0  0  0  0  0  0
    4.6185    3.4401    0.2103 C   0  0  0  0  0  0  0  0  0  0  0  0
    3.9981    4.3165    0.3280 H   0  0  0  0  0  0  0  0  0  0  0  0
    3.9334    2.2678    0.0558 N   0  0  0  0  0  0  0  0  0  0  0  0
    2.9006    2.2588    0.0549 H   0  0  0  0  0  0  0  0  0  0  0  0
    4.5643    1.0634   -0.1065 C   0  0  0  0  0  0  0  0  0  0  0  0
    3.9671   -0.0005   -0.2483 O   0  0  0  0  0  0  0  0  0  0  0  0
  1  2  2  0  0  0  0
  3  4  1  0  0  0  0
  3  1  1  0  0  0  0
  5  3  1  0  0  0  0
  6  1  1  0  0  0  0
  6  7  1  0  0  0  0
  8  6  1  0  0  0  0
  9  6  1  0  0  0  0
 10 12  1  0  0  0  0
 11 10  1  0  0  0  0
 12 14  1  0  0  0  0
 13 12  2  0  0  0  0
 14 15  1  0  0  0  0
 16 14  2  0  0  0  0
 16 17  1  0  0  0  0
 18 16  1  0  0  0  0
 19 18  1  0  0  0  0
 20 10  1  0  0  0  0
 20 18  1  0  0  0  0
 21 20  2  0  0  0  0
M  END
>  <SMILES>
C(=O)(N)C.[nH]1c(=O)cc[nH]c1=O

>  <MoleculeName>
AcNH2Uracil200

>  <Distance Scale>
2.0

>  <Energy Value>
-4.65

$$$$
/home/S66X8/3054_45EthynePentane105.xyz
 OpenBabel06262409173D

 21 19  0  0  0  0  0  0  0  0999 V2000
   -0.6062    0.0559    0.5890 C   0  0  0  0  0  0  0  0  0  0  0  0
   -1.6680    0.0558    0.5890 H   0  0  0  0  0  0  0  0  0  0  0  0
    0.6058    0.0555    0.5893 C   0  0  0  0  0  0  0  0  0  0  0  0
    1.6677    0.0549    0.5897 H   0  0  0  0  0  0  0  0  0  0  0  0
   -2.5304   -0.3505    4.3831 C   0  0  0  0  0  0  0  0  0  0  0  0
   -2.5388   -1.0125    3.5167 H   0  0  0  0  0  0  0  0  0  0  0  0
   -2.5823   -0.9768    5.2737 H   0  0  0  0  0  0  0  0  0  0  0  0
   -3.4328    0.2584    4.3504 H   0  0  0  0  0  0  0  0  0  0  0  0
   -1.2699    0.5041    4.3942 C   0  0  0  0  0  0  0  0  0  0  0  0
   -1.2865    1.1771    5.2546 H   0  0  0  0  0  0  0  0  0  0  0  0
   -1.2446    1.1383    3.5054 H   0  0  0  0  0  0  0  0  0  0  0  0
    0.0001   -0.3343    4.4347 C   0  0  0  0  0  0  0  0  0  0  0  0
    0.0001   -0.9521    5.3377 H   0  0  0  0  0  0  0  0  0  0  0  0
    0.0001   -1.0226    3.5854 H   0  0  0  0  0  0  0  0  0  0  0  0
    1.2700    0.5041    4.3943 C   0  0  0  0  0  0  0  0  0  0  0  0
    1.2866    1.1771    5.2547 H   0  0  0  0  0  0  0  0  0  0  0  0
    1.2448    1.1383    3.5055 H   0  0  0  0  0  0  0  0  0  0  0  0
    2.5305   -0.3505    4.3833 C   0  0  0  0  0  0  0  0  0  0  0  0
    2.5389   -1.0125    3.5170 H   0  0  0  0  0  0  0  0  0  0  0  0
    3.4329    0.2584    4.3506 H   0  0  0  0  0  0  0  0  0  0  0  0
    2.5823   -0.9768    5.2740 H   0  0  0  0  0  0  0  0  0  0  0  0
  1  2  1  0  0  0  0
  1  3  3  0  0  0  0
  3  4  1  0  0  0  0
  5  9  1  0  0  0  0
  5  7  1  0  0  0  0
  6  5  1  0  0  0  0
  8  5  1  0  0  0  0
  9 12  1  0  0  0  0
  9 10  1  0  0  0  0
 11  9  1  0  0  0  0
 12 13  1  0  0  0  0
 14 12  1  0  0  0  0
 15 12  1  0  0  0  0
 15 16  1  0  0  0  0
 17 15  1  0  0  0  0
 18 15  1  0  0  0  0
 18 21  1  0  0  0  0
 19 18  1  0  0  0  0
 20 18  1  0  0  0  0
M  END
>  <SMILES>
C#C.CCCCC

>  <MoleculeName>
EthynePentane105

>  <Distance Scale>
1.05

>  <Energy Value>
-1.68

$$$$
/home/S66X8/2924_29PyridineUracilpipi095.xyz
 OpenBabel06262409173D

 23 23  0  0  0  0  0  0  0  0999 V2000
    1.2108    0.0287    0.3297 N   0  0  0  0  0  0  0  0  0  0  0  0
    0.6119   -1.1584    0.1535 C   0  0  0  0  0  0  0  0  0  0  0  0
    1.2515   -2.0295    0.2193 H   0  0  0  0  0  0  0  0  0  0  0  0
   -0.7513   -1.3086   -0.0888 C   0  0  0  0  0  0  0  0  0  0  0  0
   -1.1704   -2.2969   -0.2134 H   0  0  0  0  0  0  0  0  0  0  0  0
   -1.5479   -0.1699   -0.1565 C   0  0  0  0  0  0  0  0  0  0  0  0
   -2.6110   -0.2460   -0.3388 H   0  0  0  0  0  0  0  0  0  0  0  0
   -0.9436    1.0706    0.0198 C   0  0  0  0  0  0  0  0  0  0  0  0
   -1.5188    1.9845   -0.0116 H   0  0  0  0  0  0  0  0  0  0  0  0
    0.4277    1.1161    0.2573 C   0  0  0  0  0  0  0  0  0  0  0  0
    0.9247    2.0681    0.3975 H   0  0  0  0  0  0  0  0  0  0  0  0
   -0.7304   -0.2938    3.1047 N   0  0  0  0  0  0  0  0  0  0  0  0
   -1.6253   -0.7257    2.9201 H   0  0  0  0  0  0  0  0  0  0  0  0
   -0.7301    1.1040    3.1977 C   0  0  0  0  0  0  0  0  0  0  0  0
   -1.7700    1.7322    3.0829 O   0  0  0  0  0  0  0  0  0  0  0  0
    0.5894    1.6631    3.4253 C   0  0  0  0  0  0  0  0  0  0  0  0
    0.6907    2.7303    3.5212 H   0  0  0  0  0  0  0  0  0  0  0  0
    1.6593    0.8444    3.4968 C   0  0  0  0  0  0  0  0  0  0  0  0
    2.6631    1.2131    3.6452 H   0  0  0  0  0  0  0  0  0  0  0  0
    1.5412   -0.5129    3.3843 N   0  0  0  0  0  0  0  0  0  0  0  0
    2.3546   -1.1051    3.3761 H   0  0  0  0  0  0  0  0  0  0  0  0
    0.3407   -1.1601    3.1579 C   0  0  0  0  0  0  0  0  0  0  0  0
    0.2486   -2.3655    3.0243 O   0  0  0  0  0  0  0  0  0  0  0  0
  2  3  1  0  0  0  0
  2  1  2  0  0  0  0
  4  2  1  0  0  0  0
  5  4  1  0  0  0  0
  6  4  2  0  0  0  0
  6  8  1  0  0  0  0
  7  6  1  0  0  0  0
  8 10  2  0  0  0  0
  9  8  1  0  0  0  0
 10  1  1  0  0  0  0
 10 11  1  0  0  0  0
 12 22  1  0  0  0  0
 12 14  1  0  0  0  0
 13 12  1  0  0  0  0
 14 16  1  0  0  0  0
 15 14  2  0  0  0  0
 16 18  2  0  0  0  0
 16 17  1  0  0  0  0
 18 19  1  0  0  0  0
 20 18  1  0  0  0  0
 21 20  1  0  0  0  0
 22 20  1  0  0  0  0
 23 22  2  0  0  0  0
M  END
>  <SMILES>
n1ccccc1.[nH]1c(=O)cc[nH]c1=O

>  <MoleculeName>
PyridineUracilpipi095

>  <Distance Scale>
0.95

>  <Energy Value>
-6.17

$$$$
/home/S66X8/2961_33PyridineEthene150.xyz
 OpenBabel06262409173D

 17 16  0  0  0  0  0  0  0  0999 V2000
    1.3814   -0.0002    0.1315 N   0  0  0  0  0  0  0  0  0  0  0  0
    0.6794   -1.1402    0.0921 C   0  0  0  0  0  0  0  0  0  0  0  0
    1.2587   -2.0550    0.1259 H   0  0  0  0  0  0  0  0  0  0  0  0
   -0.7097   -1.1931    0.0067 C   0  0  0  0  0  0  0  0  0  0  0  0
   -1.2141   -2.1486   -0.0253 H   0  0  0  0  0  0  0  0  0  0  0  0
   -1.4216    0.0001   -0.0408 C   0  0  0  0  0  0  0  0  0  0  0  0
   -2.5007    0.0003   -0.1092 H   0  0  0  0  0  0  0  0  0  0  0  0
   -0.7094    1.1932    0.0065 C   0  0  0  0  0  0  0  0  0  0  0  0
   -1.2135    2.1487   -0.0255 H   0  0  0  0  0  0  0  0  0  0  0  0
    0.6797    1.1400    0.0919 C   0  0  0  0  0  0  0  0  0  0  0  0
    1.2593    2.0545    0.1255 H   0  0  0  0  0  0  0  0  0  0  0  0
    0.0336    0.6665    5.0387 C   0  0  0  0  0  0  0  0  0  0  0  0
    0.9440    1.2260    4.8796 H   0  0  0  0  0  0  0  0  0  0  0  0
   -0.8760    1.2289    5.1957 H   0  0  0  0  0  0  0  0  0  0  0  0
    0.0339   -0.6662    5.0389 C   0  0  0  0  0  0  0  0  0  0  0  0
    0.9446   -1.2253    4.8798 H   0  0  0  0  0  0  0  0  0  0  0  0
   -0.8754   -1.2290    5.1959 H   0  0  0  0  0  0  0  0  0  0  0  0
  2  3  1  0  0  0  0
  2  1  1  0  0  0  0
  4  2  2  0  0  0  0
  5  4  1  0  0  0  0
  6  8  2  0  0  0  0
  6  4  1  0  0  0  0
  7  6  1  0  0  0  0
  8 10  1  0  0  0  0
  9  8  1  0  0  0  0
 10 11  1  0  0  0  0
 10  1  2  0  0  0  0
 12 15  2  0  0  0  0
 12 14  1  0  0  0  0
 13 12  1  0  0  0  0
 15 17  1  0  0  0  0
 16 15  1  0  0  0  0
M  END
>  <SMILES>
n1ccccc1.C=C

>  <MoleculeName>
PyridineEthene150

>  <Distance Scale>
1.5

>  <Energy Value>
-0.37

$$$$
/home/S66X8/2836_18WaterPyridine095.xyz
 OpenBabel06262409173D

 14 13  0  0  0  0  0  0  0  0999 V2000
   -0.5528   -0.1017   -0.0005 O   0  0  0  0  0  0  0  0  0  0  0  0
   -0.8718    0.8018    0.0001 H   0  0  0  0  0  0  0  0  0  0  0  0
    0.4127   -0.0018   -0.0003 H   0  0  0  0  0  0  0  0  0  0  0  0
    2.3061    0.0937    0.0001 N   0  0  0  0  0  0  0  0  0  0  0  0
    3.0020    0.0597    1.1449 C   0  0  0  0  0  0  0  0  0  0  0  0
    2.4173    0.0833    2.0558 H   0  0  0  0  0  0  0  0  0  0  0  0
    4.3910   -0.0055    1.1949 C   0  0  0  0  0  0  0  0  0  0  0  0
    4.8969   -0.0303    2.1492 H   0  0  0  0  0  0  0  0  0  0  0  0
    5.1022   -0.0386   -0.0000 C   0  0  0  0  0  0  0  0  0  0  0  0
    6.1820   -0.0904   -0.0001 H   0  0  0  0  0  0  0  0  0  0  0  0
    4.3909   -0.0055   -1.1948 C   0  0  0  0  0  0  0  0  0  0  0  0
    4.8967   -0.0304   -2.1492 H   0  0  0  0  0  0  0  0  0  0  0  0
    3.0018    0.0597   -1.1447 C   0  0  0  0  0  0  0  0  0  0  0  0
    2.4171    0.0833   -2.0555 H   0  0  0  0  0  0  0  0  0  0  0  0
  1  3  1  0  0  0  0
  1  2  1  0  0  0  0
  4  5  1  0  0  0  0
  5  7  2  0  0  0  0
  5  6  1  0  0  0  0
  7  8  1  0  0  0  0
  9  7  1  0  0  0  0
 10  9  1  0  0  0  0
 11 13  1  0  0  0  0
 11  9  2  0  0  0  0
 12 11  1  0  0  0  0
 13  4  2  0  0  0  0
 14 13  1  0  0  0  0
M  END
>  <SMILES>
O.n1ccccc1

>  <MoleculeName>
WaterPyridine095

>  <Distance Scale>
0.95

>  <Energy Value>
-6.8

$$$$
/home/S66X8/2785_11MeNH2Peptide150.xyz
 OpenBabel06262409173D

 19 17  0  0  0  0  0  0  0  0999 V2000
   -0.5697    0.8144    0.1011 N   0  0  0  0  0  0  0  0  0  0  0  0
    0.1309    0.5614   -0.5876 H   0  0  0  0  0  0  0  0  0  0  0  0
   -1.4613    0.5269   -0.2804 H   0  0  0  0  0  0  0  0  0  0  0  0
   -0.3055    0.0657    1.3288 C   0  0  0  0  0  0  0  0  0  0  0  0
   -1.0571    0.3143    2.0760 H   0  0  0  0  0  0  0  0  0  0  0  0
   -0.2880   -1.0223    1.2148 H   0  0  0  0  0  0  0  0  0  0  0  0
    0.6605    0.3685    1.7302 H   0  0  0  0  0  0  0  0  0  0  0  0
    3.8740    2.5751   -0.3710 C   0  0  0  0  0  0  0  0  0  0  0  0
    3.9986    2.9863   -1.3701 H   0  0  0  0  0  0  0  0  0  0  0  0
    4.3806    3.2161    0.3468 H   0  0  0  0  0  0  0  0  0  0  0  0
    2.8076    2.5486   -0.1526 H   0  0  0  0  0  0  0  0  0  0  0  0
    4.3860    1.1573   -0.3687 C   0  0  0  0  0  0  0  0  0  0  0  0
    3.9260    0.2916   -1.1079 O   0  0  0  0  0  0  0  0  0  0  0  0
    5.3725    0.8843    0.5236 N   0  0  0  0  0  0  0  0  0  0  0  0
    5.7722    1.6392    1.0490 H   0  0  0  0  0  0  0  0  0  0  0  0
    5.9609   -0.4353    0.6011 C   0  0  0  0  0  0  0  0  0  0  0  0
    5.1727   -1.1766    0.5081 H   0  0  0  0  0  0  0  0  0  0  0  0
    6.6822   -0.6073   -0.1974 H   0  0  0  0  0  0  0  0  0  0  0  0
    6.4556   -0.5512    1.5610 H   0  0  0  0  0  0  0  0  0  0  0  0
  1  4  1  0  0  0  0
  2  1  1  0  0  0  0
  3  1  1  0  0  0  0
  4  7  1  0  0  0  0
  4  5  1  0  0  0  0
  6  4  1  0  0  0  0
  8 12  1  0  0  0  0
  8 11  1  0  0  0  0
  8 10  1  0  0  0  0
  9  8  1  0  0  0  0
 12 14  1  0  0  0  0
 13 12  2  0  0  0  0
 14 16  1  0  0  0  0
 14 15  1  0  0  0  0
 16 19  1  0  0  0  0
 17 16  1  0  0  0  0
 18 16  1  0  0  0  0
M  END
>  <SMILES>
NC.CC(=O)NC

>  <MoleculeName>
MeNH2Peptide150

>  <Distance Scale>
1.5

>  <Energy Value>
-1.4

$$$$
/home/S66X8/3122_53BenzeneAcNH2NHpi200.xyz
 OpenBabel06262409173D

 21 20  0  0  0  0  0  0  0  0999 V2000
    0.8556    0.3585    1.0498 C   0  0  0  0  0  0  0  0  0  0  0  0
    1.5138    0.9027    1.7128 H   0  0  0  0  0  0  0  0  0  0  0  0
    1.3429   -0.6754    0.2512 C   0  0  0  0  0  0  0  0  0  0  0  0
    2.3929   -0.9333    0.2820 H   0  0  0  0  0  0  0  0  0  0  0  0
    0.4778   -1.3767   -0.5878 C   0  0  0  0  0  0  0  0  0  0  0  0
    0.8561   -2.1789   -1.2068 H   0  0  0  0  0  0  0  0  0  0  0  0
   -0.8748   -1.0426   -0.6305 C   0  0  0  0  0  0  0  0  0  0  0  0
   -1.5454   -1.5857   -1.2824 H   0  0  0  0  0  0  0  0  0  0  0  0
   -1.3624   -0.0070    0.1658 C   0  0  0  0  0  0  0  0  0  0  0  0
   -2.4116    0.2535    0.1308 H   0  0  0  0  0  0  0  0  0  0  0  0
   -0.4984    0.6932    1.0070 C   0  0  0  0  0  0  0  0  0  0  0  0
   -0.8661    1.4903    1.6380 H   0  0  0  0  0  0  0  0  0  0  0  0
   -0.3347   -0.8232    7.1554 C   0  0  0  0  0  0  0  0  0  0  0  0
   -0.0882    0.2202    6.5682 O   0  0  0  0  0  0  0  0  0  0  0  0
   -0.6387   -1.9782    6.5042 N   0  0  0  0  0  0  0  0  0  0  0  0
   -0.6135   -1.9853    5.4976 H   0  0  0  0  0  0  0  0  0  0  0  0
   -0.7945   -2.8337    7.0000 H   0  0  0  0  0  0  0  0  0  0  0  0
   -0.3118   -0.9181    8.6638 C   0  0  0  0  0  0  0  0  0  0  0  0
    0.7199   -0.8339    8.9989 H   0  0  0  0  0  0  0  0  0  0  0  0
   -0.7337   -1.8448    9.0449 H   0  0  0  0  0  0  0  0  0  0  0  0
   -0.8613   -0.0743    9.0706 H   0  0  0  0  0  0  0  0  0  0  0  0
  1  2  1  0  0  0  0
  3  4  1  0  0  0  0
  3  1  2  0  0  0  0
  5  3  1  0  0  0  0
  6  5  1  0  0  0  0
  7  5  2  0  0  0  0
  7  9  1  0  0  0  0
  8  7  1  0  0  0  0
  9 11  2  0  0  0  0
 10  9  1  0  0  0  0
 11  1  1  0  0  0  0
 11 12  1  0  0  0  0
 13 18  1  0  0  0  0
 14 13  2  0  0  0  0
 15 17  1  0  0  0  0
 15 13  1  0  0  0  0
 16 15  1  0  0  0  0
 18 19  1  0  0  0  0
 18 20  1  0  0  0  0
 18 21  1  0  0  0  0
M  END
>  <SMILES>
c1ccccc1.C(=O)(N)C

>  <MoleculeName>
BenzeneAcNH2NHpi200

>  <Distance Scale>
2.0

>  <Energy Value>
-0.48

$$$$
/home/S66X8/3097_50BenzeneEthyneCHpi150.xyz
 OpenBabel06262409173D

 16 15  0  0  0  0  0  0  0  0999 V2000
    0.8366    1.1149    0.2310 C   0  0  0  0  0  0  0  0  0  0  0  0
    1.4855    1.9797    0.2147 H   0  0  0  0  0  0  0  0  0  0  0  0
    1.3842   -0.1670    0.2601 C   0  0  0  0  0  0  0  0  0  0  0  0
    2.4577   -0.2963    0.2661 H   0  0  0  0  0  0  0  0  0  0  0  0
    0.5475   -1.2818    0.2869 C   0  0  0  0  0  0  0  0  0  0  0  0
    0.9719   -2.2760    0.3139 H   0  0  0  0  0  0  0  0  0  0  0  0
   -0.8367   -1.1150    0.2846 C   0  0  0  0  0  0  0  0  0  0  0  0
   -1.4856   -1.9796    0.3097 H   0  0  0  0  0  0  0  0  0  0  0  0
   -1.3842    0.1669    0.2556 C   0  0  0  0  0  0  0  0  0  0  0  0
   -2.4576    0.2965    0.2585 H   0  0  0  0  0  0  0  0  0  0  0  0
   -0.5475    1.2817    0.2290 C   0  0  0  0  0  0  0  0  0  0  0  0
   -0.9721    2.2760    0.2112 H   0  0  0  0  0  0  0  0  0  0  0  0
    0.0076    0.1106    5.2926 C   0  0  0  0  0  0  0  0  0  0  0  0
    0.0046    0.0931    4.2285 H   0  0  0  0  0  0  0  0  0  0  0  0
    0.0113    0.1302    6.5049 C   0  0  0  0  0  0  0  0  0  0  0  0
    0.0144    0.1474    7.5661 H   0  0  0  0  0  0  0  0  0  0  0  0
  1  3  1  0  0  0  0
  2  1  1  0  0  0  0
  3  4  1  0  0  0  0
  3  5  2  0  0  0  0
  5  6  1  0  0  0  0
  7  5  1  0  0  0  0
  7  8  1  0  0  0  0
  9 10  1  0  0  0  0
  9  7  2  0  0  0  0
 11  1  2  0  0  0  0
 11  9  1  0  0  0  0
 12 11  1  0  0  0  0
 13 15  3  0  0  0  0
 14 13  1  0  0  0  0
 15 16  1  0  0  0  0
M  END
>  <SMILES>
c1ccccc1.C#C

>  <MoleculeName>
BenzeneEthyneCHpi150

>  <Distance Scale>
1.5

>  <Energy Value>
-0.89

$$$$
/home/S66X8/3038_43UracilNeopentane105.xyz
 OpenBabel06262409173D

 29 28  0  0  0  0  0  0  0  0999 V2000
    0.6261   -0.8509    0.8059 N   0  0  0  0  0  0  0  0  0  0  0  0
    0.4092   -1.8115    1.0344 H   0  0  0  0  0  0  0  0  0  0  0  0
   -0.4325   -0.0873    0.2947 C   0  0  0  0  0  0  0  0  0  0  0  0
   -1.5308   -0.5884    0.1236 O   0  0  0  0  0  0  0  0  0  0  0  0
   -0.0669    1.2913    0.0196 C   0  0  0  0  0  0  0  0  0  0  0  0
   -0.8097    1.9518   -0.3928 H   0  0  0  0  0  0  0  0  0  0  0  0
    1.1835    1.7179    0.2905 C   0  0  0  0  0  0  0  0  0  0  0  0
    1.5019    2.7339    0.1098 H   0  0  0  0  0  0  0  0  0  0  0  0
    2.1341    0.8866    0.8191 N   0  0  0  0  0  0  0  0  0  0  0  0
    3.0553    1.2239    1.0434 H   0  0  0  0  0  0  0  0  0  0  0  0
    1.9028   -0.4432    1.1283 C   0  0  0  0  0  0  0  0  0  0  0  0
    2.7438   -1.1639    1.6286 O   0  0  0  0  0  0  0  0  0  0  0  0
   -0.6905   -0.0337    4.9189 C   0  0  0  0  0  0  0  0  0  0  0  0
   -2.0072    0.7076    5.1338 C   0  0  0  0  0  0  0  0  0  0  0  0
   -2.7143    0.0894    5.6886 H   0  0  0  0  0  0  0  0  0  0  0  0
   -1.8477    1.6278    5.6980 H   0  0  0  0  0  0  0  0  0  0  0  0
   -2.4649    0.9691    4.1786 H   0  0  0  0  0  0  0  0  0  0  0  0
   -0.0750   -0.3871    6.2702 C   0  0  0  0  0  0  0  0  0  0  0  0
    0.8681   -0.9195    6.1394 H   0  0  0  0  0  0  0  0  0  0  0  0
    0.1220    0.5126    6.8550 H   0  0  0  0  0  0  0  0  0  0  0  0
   -0.7463   -1.0248    6.8469 H   0  0  0  0  0  0  0  0  0  0  0  0
    0.2746    0.8598    4.1431 C   0  0  0  0  0  0  0  0  0  0  0  0
    1.2232    0.3472    3.9727 H   0  0  0  0  0  0  0  0  0  0  0  0
    0.4799    1.7779    4.6965 H   0  0  0  0  0  0  0  0  0  0  0  0
   -0.1478    1.1383    3.1756 H   0  0  0  0  0  0  0  0  0  0  0  0
   -0.9518   -1.3137    4.1285 C   0  0  0  0  0  0  0  0  0  0  0  0
   -1.4155   -1.0919    3.1659 H   0  0  0  0  0  0  0  0  0  0  0  0
   -0.0192   -1.8521    3.9489 H   0  0  0  0  0  0  0  0  0  0  0  0
   -1.6223   -1.9755    4.6787 H   0  0  0  0  0  0  0  0  0  0  0  0
  1  2  1  0  0  0  0
  1 11  1  0  0  0  0
  3  1  1  0  0  0  0
  4  3  2  0  0  0  0
  5  7  2  0  0  0  0
  5  3  1  0  0  0  0
  6  5  1  0  0  0  0
  7  9  1  0  0  0  0
  8  7  1  0  0  0  0
  9 10  1  0  0  0  0
  9 11  1  0  0  0  0
 11 12  2  0  0  0  0
 13 14  1  0  0  0  0
 13 18  1  0  0  0  0
 14 15  1  0  0  0  0
 14 16  1  0  0  0  0
 17 14  1  0  0  0  0
 18 21  1  0  0  0  0
 18 20  1  0  0  0  0
 19 18  1  0  0  0  0
 22 24  1  0  0  0  0
 22 13  1  0  0  0  0
 23 22  1  0  0  0  0
 25 22  1  0  0  0  0
 26 29  1  0  0  0  0
 26 13  1  0  0  0  0
 27 26  1  0  0  0  0
 28 26  1  0  0  0  0
M  END
>  <SMILES>
[nH]1c(=O)cc[nH]c1=O.C(C)(C)(C)C

>  <MoleculeName>
UracilNeopentane105

>  <Distance Scale>
1.05

>  <Energy Value>
-3.49

$$$$
/home/S66X8/3134_55BenzeneMeOHOHpi105.xyz
 OpenBabel06262409173D

 18 17  0  0  0  0  0  0  0  0999 V2000
    0.7597    1.0313    0.3738 C   0  0  0  0  0  0  0  0  0  0  0  0
    1.4350    1.8757    0.3747 H   0  0  0  0  0  0  0  0  0  0  0  0
    1.2666   -0.2674    0.4213 C   0  0  0  0  0  0  0  0  0  0  0  0
    2.3349   -0.4292    0.4594 H   0  0  0  0  0  0  0  0  0  0  0  0
    0.3953   -1.3560    0.4249 C   0  0  0  0  0  0  0  0  0  0  0  0
    0.7887   -2.3625    0.4630 H   0  0  0  0  0  0  0  0  0  0  0  0
   -0.9822   -1.1467    0.3813 C   0  0  0  0  0  0  0  0  0  0  0  0
   -1.6577   -1.9911    0.3851 H   0  0  0  0  0  0  0  0  0  0  0  0
   -1.4893    0.1511    0.3376 C   0  0  0  0  0  0  0  0  0  0  0  0
   -2.5579    0.3138    0.3077 H   0  0  0  0  0  0  0  0  0  0  0  0
   -0.6188    1.2403    0.3339 C   0  0  0  0  0  0  0  0  0  0  0  0
   -1.0118    2.2471    0.3044 H   0  0  0  0  0  0  0  0  0  0  0  0
    0.0355    0.2997    3.8250 O   0  0  0  0  0  0  0  0  0  0  0  0
    0.1216    0.3496    2.8678 H   0  0  0  0  0  0  0  0  0  0  0  0
   -0.8607   -0.7579    4.1081 C   0  0  0  0  0  0  0  0  0  0  0  0
   -0.9564   -0.8146    5.1890 H   0  0  0  0  0  0  0  0  0  0  0  0
   -1.8528   -0.5862    3.6843 H   0  0  0  0  0  0  0  0  0  0  0  0
   -0.4942   -1.7209    3.7452 H   0  0  0  0  0  0  0  0  0  0  0  0
  1  2  1  0  0  0  0
  1  3  1  0  0  0  0
  3  5  2  0  0  0  0
  3  4  1  0  0  0  0
  5  6  1  0  0  0  0
  7  8  1  0  0  0  0
  7  5  1  0  0  0  0
  9  7  2  0  0  0  0
 10  9  1  0  0  0  0
 11  9  1  0  0  0  0
 11  1  2  0  0  0  0
 12 11  1  0  0  0  0
 13 15  1  0  0  0  0
 14 13  1  0  0  0  0
 15 16  1  0  0  0  0
 17 15  1  0  0  0  0
 18 15  1  0  0  0  0
M  END
>  <SMILES>
c1ccccc1.OC

>  <MoleculeName>
BenzeneMeOHOHpi105

>  <Distance Scale>
1.05

>  <Energy Value>
-4.07

$$$$
/home/S66X8/3102_51EthyneEthyneTS105.xyz
 OpenBabel06262409173D

  8  6  0  0  0  0  0  0  0  0999 V2000
   -0.6017   -0.0286    0.3849 C   0  0  0  0  0  0  0  0  0  0  0  0
   -1.6637   -0.0285    0.3790 H   0  0  0  0  0  0  0  0  0  0  0  0
    0.6101   -0.0287    0.3882 C   0  0  0  0  0  0  0  0  0  0  0  0
    1.6721   -0.0288    0.3880 H   0  0  0  0  0  0  0  0  0  0  0  0
   -0.0079    0.1061    4.3057 C   0  0  0  0  0  0  0  0  0  0  0  0
   -0.0045    0.0724    3.2424 H   0  0  0  0  0  0  0  0  0  0  0  0
   -0.0118    0.1444    5.5172 C   0  0  0  0  0  0  0  0  0  0  0  0
   -0.0151    0.1778    6.5781 H   0  0  0  0  0  0  0  0  0  0  0  0
  1  3  3  0  0  0  0
  2  1  1  0  0  0  0
  4  3  1  0  0  0  0
  5  7  3  0  0  0  0
  6  5  1  0  0  0  0
  7  8  1  0  0  0  0
M  END
>  <SMILES>
C#C.C#C

>  <MoleculeName>
EthyneEthyneTS105

>  <Distance Scale>
1.05

>  <Energy Value>
-1.46

$$$$
/home/S66X8/2840_18WaterPyridine125.xyz
 OpenBabel06262409173D

 14 13  0  0  0  0  0  0  0  0999 V2000
   -0.5528   -0.1017   -0.0005 O   0  0  0  0  0  0  0  0  0  0  0  0
   -0.8718    0.8018    0.0001 H   0  0  0  0  0  0  0  0  0  0  0  0
    0.4127   -0.0018   -0.0003 H   0  0  0  0  0  0  0  0  0  0  0  0
    2.9039    0.1239    0.0003 N   0  0  0  0  0  0  0  0  0  0  0  0
    3.5999    0.0899    1.1450 C   0  0  0  0  0  0  0  0  0  0  0  0
    3.0152    0.1135    2.0559 H   0  0  0  0  0  0  0  0  0  0  0  0
    4.9889    0.0247    1.1950 C   0  0  0  0  0  0  0  0  0  0  0  0
    5.4948   -0.0001    2.1493 H   0  0  0  0  0  0  0  0  0  0  0  0
    5.7000   -0.0084    0.0001 C   0  0  0  0  0  0  0  0  0  0  0  0
    6.7799   -0.0602    0.0000 H   0  0  0  0  0  0  0  0  0  0  0  0
    4.9887    0.0246   -1.1947 C   0  0  0  0  0  0  0  0  0  0  0  0
    5.4945   -0.0002   -2.1491 H   0  0  0  0  0  0  0  0  0  0  0  0
    3.5997    0.0898   -1.1446 C   0  0  0  0  0  0  0  0  0  0  0  0
    3.0149    0.1134   -2.0554 H   0  0  0  0  0  0  0  0  0  0  0  0
  1  3  1  0  0  0  0
  1  2  1  0  0  0  0
  4  5  1  0  0  0  0
  5  7  2  0  0  0  0
  5  6  1  0  0  0  0
  7  8  1  0  0  0  0
  9  7  1  0  0  0  0
 10  9  1  0  0  0  0
 11 13  1  0  0  0  0
 11  9  2  0  0  0  0
 12 11  1  0  0  0  0
 13  4  2  0  0  0  0
 14 13  1  0  0  0  0
M  END
>  <SMILES>
O.n1ccccc1

>  <MoleculeName>
WaterPyridine125

>  <Distance Scale>
1.25

>  <Energy Value>
-4.93

$$$$
/home/S66X8/3071_47BenzeneBenzeneTS110.xyz
 OpenBabel06262409173D

 24 24  0  0  0  0  0  0  0  0999 V2000
    0.7292    1.1131    0.3267 C   0  0  0  0  0  0  0  0  0  0  0  0
    1.3032    2.0142    0.1592 H   0  0  0  0  0  0  0  0  0  0  0  0
    1.3751   -0.1194    0.4128 C   0  0  0  0  0  0  0  0  0  0  0  0
    2.4505   -0.1746    0.3133 H   0  0  0  0  0  0  0  0  0  0  0  0
    0.6350   -1.2806    0.6294 C   0  0  0  0  0  0  0  0  0  0  0  0
    1.1363   -2.2360    0.7002 H   0  0  0  0  0  0  0  0  0  0  0  0
   -0.7510   -1.2097    0.7579 C   0  0  0  0  0  0  0  0  0  0  0  0
   -1.3245   -2.1114    0.9242 H   0  0  0  0  0  0  0  0  0  0  0  0
   -1.3970    0.0227    0.6731 C   0  0  0  0  0  0  0  0  0  0  0  0
   -2.4724    0.0785    0.7740 H   0  0  0  0  0  0  0  0  0  0  0  0
   -0.6569    1.1843    0.4583 C   0  0  0  0  0  0  0  0  0  0  0  0
   -1.1578    2.1406    0.3951 H   0  0  0  0  0  0  0  0  0  0  0  0
    0.1896    0.1991    4.3558 C   0  0  0  0  0  0  0  0  0  0  0  0
    0.3118    0.4246    3.3054 H   0  0  0  0  0  0  0  0  0  0  0  0
   -0.9014   -0.5558    4.7832 C   0  0  0  0  0  0  0  0  0  0  0  0
   -1.6219   -0.9123    4.0595 H   0  0  0  0  0  0  0  0  0  0  0  0
   -1.0621   -0.8499    6.1361 C   0  0  0  0  0  0  0  0  0  0  0  0
   -1.9092   -1.4359    6.4664 H   0  0  0  0  0  0  0  0  0  0  0  0
   -0.1303   -0.3889    7.0646 C   0  0  0  0  0  0  0  0  0  0  0  0
   -0.2541   -0.6168    8.1146 H   0  0  0  0  0  0  0  0  0  0  0  0
    0.9613    0.3662    6.6394 C   0  0  0  0  0  0  0  0  0  0  0  0
    1.6844    0.7241    7.3598 H   0  0  0  0  0  0  0  0  0  0  0  0
    1.1201    0.6597    5.2859 C   0  0  0  0  0  0  0  0  0  0  0  0
    1.9674    1.2458    4.9558 H   0  0  0  0  0  0  0  0  0  0  0  0
  1  3  2  0  0  0  0
  1 11  1  0  0  0  0
  2  1  1  0  0  0  0
  3  5  1  0  0  0  0
  4  3  1  0  0  0  0
  5  6  1  0  0  0  0
  5  7  2  0  0  0  0
  7  8  1  0  0  0  0
  9  7  1  0  0  0  0
  9 10  1  0  0  0  0
 11  9  2  0  0  0  0
 12 11  1  0  0  0  0
 13 15  2  0  0  0  0
 13 23  1  0  0  0  0
 14 13  1  0  0  0  0
 15 17  1  0  0  0  0
 16 15  1  0  0  0  0
 17 18  1  0  0  0  0
 17 19  2  0  0  0  0
 19 20  1  0  0  0  0
 21 19  1  0  0  0  0
 21 22  1  0  0  0  0
 23 21  2  0  0  0  0
 24 23  1  0  0  0  0
M  END
>  <SMILES>
c1ccccc1.c1ccccc1

>  <MoleculeName>
BenzeneBenzeneTS110

>  <Distance Scale>
1.1

>  <Energy Value>
-2.6

$$$$
/home/S66X8/3149_57BenzenePeptideNHpi100.xyz
 OpenBabel06262409173D

 24 23  0  0  0  0  0  0  0  0999 V2000
    0.4088    1.0510    0.3755 C   0  0  0  0  0  0  0  0  0  0  0  0
    1.0119    1.9485    0.3681 H   0  0  0  0  0  0  0  0  0  0  0  0
    1.0192   -0.1998    0.2891 C   0  0  0  0  0  0  0  0  0  0  0  0
    2.0956   -0.2718    0.2172 H   0  0  0  0  0  0  0  0  0  0  0  0
    0.2417   -1.3569    0.2967 C   0  0  0  0  0  0  0  0  0  0  0  0
    0.7152   -2.3266    0.2281 H   0  0  0  0  0  0  0  0  0  0  0  0
   -1.1462   -1.2643    0.3939 C   0  0  0  0  0  0  0  0  0  0  0  0
   -1.7492   -2.1619    0.3994 H   0  0  0  0  0  0  0  0  0  0  0  0
   -1.7573   -0.0140    0.4830 C   0  0  0  0  0  0  0  0  0  0  0  0
   -2.8335    0.0582    0.5590 H   0  0  0  0  0  0  0  0  0  0  0  0
   -0.9797    1.1442    0.4723 C   0  0  0  0  0  0  0  0  0  0  0  0
   -1.4541    2.1140    0.5371 H   0  0  0  0  0  0  0  0  0  0  0  0
    0.2454    1.9561    4.2423 C   0  0  0  0  0  0  0  0  0  0  0  0
   -0.1128    2.1219    3.2290 H   0  0  0  0  0  0  0  0  0  0  0  0
    1.2699    2.3128    4.3237 H   0  0  0  0  0  0  0  0  0  0  0  0
   -0.3587    2.5298    4.9406 H   0  0  0  0  0  0  0  0  0  0  0  0
    0.2085    0.5030    4.6580 C   0  0  0  0  0  0  0  0  0  0  0  0
    0.4931    0.1506    5.7965 O   0  0  0  0  0  0  0  0  0  0  0  0
   -0.1639   -0.3627    3.6787 N   0  0  0  0  0  0  0  0  0  0  0  0
   -0.3250   -0.0047    2.7527 H   0  0  0  0  0  0  0  0  0  0  0  0
   -0.2007   -1.7896    3.8968 C   0  0  0  0  0  0  0  0  0  0  0  0
   -0.1226   -1.9565    4.9668 H   0  0  0  0  0  0  0  0  0  0  0  0
   -1.1359   -2.2080    3.5301 H   0  0  0  0  0  0  0  0  0  0  0  0
    0.6284   -2.2935    3.3995 H   0  0  0  0  0  0  0  0  0  0  0  0
  1 11  1  0  0  0  0
  2  1  1  0  0  0  0
  3  5  1  0  0  0  0
  3  1  2  0  0  0  0
  4  3  1  0  0  0  0
  5  7  2  0  0  0  0
  6  5  1  0  0  0  0
  7  8  1  0  0  0  0
  7  9  1  0  0  0  0
  9 10  1  0  0  0  0
 11  9  2  0  0  0  0
 11 12  1  0  0  0  0
 13 15  1  0  0  0  0
 13 17  1  0  0  0  0
 13 16  1  0  0  0  0
 14 13  1  0  0  0  0
 17 18  2  0  0  0  0
 19 21  1  0  0  0  0
 19 17  1  0  0  0  0
 20 19  1  0  0  0  0
 21 22  1  0  0  0  0
 23 21  1  0  0  0  0
 24 21  1  0  0  0  0
M  END
>  <SMILES>
c1ccccc1.CC(=O)NC

>  <MoleculeName>
BenzenePeptideNHpi100

>  <Distance Scale>
1.0

>  <Energy Value>
-5.28

$$$$
/home/S66X8/2878_23AcNH2Uracil105.xyz
 OpenBabel06262409173D

 21 20  0  0  0  0  0  0  0  0999 V2000
   -1.2327    1.2116   -0.1416 C   0  0  0  0  0  0  0  0  0  0  0  0
   -0.5713    2.2420    0.0256 O   0  0  0  0  0  0  0  0  0  0  0  0
   -0.6706    0.0039   -0.3143 N   0  0  0  0  0  0  0  0  0  0  0  0
    0.3438   -0.0906   -0.3083 H   0  0  0  0  0  0  0  0  0  0  0  0
   -1.2442   -0.8063   -0.4467 H   0  0  0  0  0  0  0  0  0  0  0  0
   -2.7382    1.2668   -0.1559 C   0  0  0  0  0  0  0  0  0  0  0  0
   -3.0780    1.6466    0.8045 H   0  0  0  0  0  0  0  0  0  0  0  0
   -3.2021    0.3029   -0.3462 H   0  0  0  0  0  0  0  0  0  0  0  0
   -3.0500    1.9755   -0.9186 H   0  0  0  0  0  0  0  0  0  0  0  0
    4.2876    1.1188   -0.1184 N   0  0  0  0  0  0  0  0  0  0  0  0
    4.7776    0.2429   -0.2363 H   0  0  0  0  0  0  0  0  0  0  0  0
    5.0912    2.2617    0.0321 C   0  0  0  0  0  0  0  0  0  0  0  0
    6.3067    2.1660    0.0169 O   0  0  0  0  0  0  0  0  0  0  0  0
    4.3186    3.4770    0.1952 C   0  0  0  0  0  0  0  0  0  0  0  0
    4.8404    4.4102    0.3183 H   0  0  0  0  0  0  0  0  0  0  0  0
    2.9694    3.4153    0.1896 C   0  0  0  0  0  0  0  0  0  0  0  0
    2.3490    4.2917    0.3072 H   0  0  0  0  0  0  0  0  0  0  0  0
    2.2843    2.2430    0.0350 N   0  0  0  0  0  0  0  0  0  0  0  0
    1.2516    2.2340    0.0342 H   0  0  0  0  0  0  0  0  0  0  0  0
    2.9152    1.0386   -0.1273 C   0  0  0  0  0  0  0  0  0  0  0  0
    2.3180   -0.0254   -0.2691 O   0  0  0  0  0  0  0  0  0  0  0  0
  1  2  2  0  0  0  0
  3  4  1  0  0  0  0
  3  1  1  0  0  0  0
  5  3  1  0  0  0  0
  6  1  1  0  0  0  0
  6  7  1  0  0  0  0
  8  6  1  0  0  0  0
  9  6  1  0  0  0  0
 10 12  1  0  0  0  0
 11 10  1  0  0  0  0
 12 14  1  0  0  0  0
 13 12  2  0  0  0  0
 14 15  1  0  0  0  0
 16 14  2  0  0  0  0
 16 17  1  0  0  0  0
 18 16  1  0  0  0  0
 19 18  1  0  0  0  0
 20 10  1  0  0  0  0
 20 18  1  0  0  0  0
 21 20  2  0  0  0  0
M  END
>  <SMILES>
C(=O)(N)C.[nH]1c(=O)cc[nH]c1=O

>  <MoleculeName>
AcNH2Uracil105

>  <Distance Scale>
1.05

>  <Energy Value>
-18.9

$$$$
/home/S66X8/2844_19MeOHPyridine095.xyz
 OpenBabel06262409173D

 17 16  0  0  0  0  0  0  0  0999 V2000
   -0.6277    0.0875    0.0015 O   0  0  0  0  0  0  0  0  0  0  0  0
    0.3436    0.1223   -0.0006 H   0  0  0  0  0  0  0  0  0  0  0  0
   -0.9779   -1.2786    0.0012 C   0  0  0  0  0  0  0  0  0  0  0  0
   -2.0634   -1.3420    0.0050 H   0  0  0  0  0  0  0  0  0  0  0  0
   -0.6149   -1.8064   -0.8854 H   0  0  0  0  0  0  0  0  0  0  0  0
   -0.6086   -1.8082    0.8842 H   0  0  0  0  0  0  0  0  0  0  0  0
    2.1961    0.0206   -0.0016 N   0  0  0  0  0  0  0  0  0  0  0  0
    2.8924   -0.0038   -1.1463 C   0  0  0  0  0  0  0  0  0  0  0  0
    2.3080    0.0194   -2.0573 H   0  0  0  0  0  0  0  0  0  0  0  0
    4.2821   -0.0536   -1.1950 C   0  0  0  0  0  0  0  0  0  0  0  0
    4.7894   -0.0709   -2.1488 H   0  0  0  0  0  0  0  0  0  0  0  0
    4.9924   -0.0793    0.0006 C   0  0  0  0  0  0  0  0  0  0  0  0
    6.0728   -0.1170    0.0015 H   0  0  0  0  0  0  0  0  0  0  0  0
    4.2802   -0.0543    1.1952 C   0  0  0  0  0  0  0  0  0  0  0  0
    4.7860   -0.0721    2.1496 H   0  0  0  0  0  0  0  0  0  0  0  0
    2.8906   -0.0045    1.1442 C   0  0  0  0  0  0  0  0  0  0  0  0
    2.3046    0.0182    2.0543 H   0  0  0  0  0  0  0  0  0  0  0  0
  2  1  1  0  0  0  0
  3  1  1  0  0  0  0
  3  4  1  0  0  0  0
  3  6  1  0  0  0  0
  5  3  1  0  0  0  0
  7 16  1  0  0  0  0
  8  7  2  0  0  0  0
  9  8  1  0  0  0  0
 10  8  1  0  0  0  0
 10 12  2  0  0  0  0
 11 10  1  0  0  0  0
 12 13  1  0  0  0  0
 12 14  1  0  0  0  0
 14 15  1  0  0  0  0
 16 14  2  0  0  0  0
 16 17  1  0  0  0  0
M  END
>  <SMILES>
OC.n1ccccc1

>  <MoleculeName>
MeOHPyridine095

>  <Distance Scale>
0.95

>  <Energy Value>
-7.31

$$$$
/home/S66X8/3053_45EthynePentane100.xyz
 OpenBabel06262409173D

 21 19  0  0  0  0  0  0  0  0999 V2000
   -0.6062    0.0559    0.5890 C   0  0  0  0  0  0  0  0  0  0  0  0
   -1.6680    0.0558    0.5890 H   0  0  0  0  0  0  0  0  0  0  0  0
    0.6058    0.0555    0.5893 C   0  0  0  0  0  0  0  0  0  0  0  0
    1.6677    0.0549    0.5897 H   0  0  0  0  0  0  0  0  0  0  0  0
   -2.5304   -0.3475    4.2203 C   0  0  0  0  0  0  0  0  0  0  0  0
   -2.5388   -1.0094    3.3538 H   0  0  0  0  0  0  0  0  0  0  0  0
   -2.5823   -0.9738    5.1108 H   0  0  0  0  0  0  0  0  0  0  0  0
   -3.4328    0.2614    4.1875 H   0  0  0  0  0  0  0  0  0  0  0  0
   -1.2699    0.5071    4.2313 C   0  0  0  0  0  0  0  0  0  0  0  0
   -1.2865    1.1801    5.0917 H   0  0  0  0  0  0  0  0  0  0  0  0
   -1.2446    1.1413    3.3425 H   0  0  0  0  0  0  0  0  0  0  0  0
    0.0000   -0.3312    4.2718 C   0  0  0  0  0  0  0  0  0  0  0  0
    0.0000   -0.9490    5.1748 H   0  0  0  0  0  0  0  0  0  0  0  0
    0.0001   -1.0195    3.4225 H   0  0  0  0  0  0  0  0  0  0  0  0
    1.2699    0.5072    4.2314 C   0  0  0  0  0  0  0  0  0  0  0  0
    1.2866    1.1801    5.0918 H   0  0  0  0  0  0  0  0  0  0  0  0
    1.2448    1.1413    3.3426 H   0  0  0  0  0  0  0  0  0  0  0  0
    2.5305   -0.3475    4.2205 C   0  0  0  0  0  0  0  0  0  0  0  0
    2.5388   -1.0095    3.3541 H   0  0  0  0  0  0  0  0  0  0  0  0
    3.4328    0.2615    4.1877 H   0  0  0  0  0  0  0  0  0  0  0  0
    2.5823   -0.9737    5.1111 H   0  0  0  0  0  0  0  0  0  0  0  0
  1  2  1  0  0  0  0
  1  3  3  0  0  0  0
  3  4  1  0  0  0  0
  5  9  1  0  0  0  0
  5  7  1  0  0  0  0
  6  5  1  0  0  0  0
  8  5  1  0  0  0  0
  9 12  1  0  0  0  0
  9 10  1  0  0  0  0
 11  9  1  0  0  0  0
 12 13  1  0  0  0  0
 14 12  1  0  0  0  0
 15 12  1  0  0  0  0
 15 16  1  0  0  0  0
 17 15  1  0  0  0  0
 18 15  1  0  0  0  0
 18 21  1  0  0  0  0
 19 18  1  0  0  0  0
 20 18  1  0  0  0  0
M  END
>  <SMILES>
C#C.CCCCC

>  <MoleculeName>
EthynePentane100

>  <Distance Scale>
1.0

>  <Energy Value>
-1.75

$$$$
/home/S66X8/2710_02WaterMeOH105.xyz
 OpenBabel06262409173D

  9  7  0  0  0  0  0  0  0  0999 V2000
   -0.5253   -0.0510   -0.3145 O   0  0  0  0  0  0  0  0  0  0  0  0
   -0.9420    0.7479    0.0113 H   0  0  0  0  0  0  0  0  0  0  0  0
    0.4037    0.0598   -0.0736 H   0  0  0  0  0  0  0  0  0  0  0  0
    2.4583    0.0444    0.0826 O   0  0  0  0  0  0  0  0  0  0  0  0
    2.8263   -0.5276    0.7602 H   0  0  0  0  0  0  0  0  0  0  0  0
    2.9233   -0.4272   -1.1795 C   0  0  0  0  0  0  0  0  0  0  0  0
    2.4925    0.2239   -1.9326 H   0  0  0  0  0  0  0  0  0  0  0  0
    4.0092   -0.3764   -1.2538 H   0  0  0  0  0  0  0  0  0  0  0  0
    2.5949   -1.4471   -1.3786 H   0  0  0  0  0  0  0  0  0  0  0  0
  1  3  1  0  0  0  0
  1  2  1  0  0  0  0
  4  5  1  0  0  0  0
  6  4  1  0  0  0  0
  7  6  1  0  0  0  0
  8  6  1  0  0  0  0
  9  6  1  0  0  0  0
M  END
>  <SMILES>
O.OC

>  <MoleculeName>
WaterMeOH105

>  <Distance Scale>
1.05

>  <Energy Value>
-5.38

$$$$
/home/S66X8/3196_63BenzeneAcOH095.xyz
 OpenBabel06262409173D

 20 19  0  0  0  0  0  0  0  0999 V2000
    0.6068    1.3304    0.3164 C   0  0  0  0  0  0  0  0  0  0  0  0
    1.2465    2.2023    0.3304 H   0  0  0  0  0  0  0  0  0  0  0  0
    1.1181    0.0872    0.6851 C   0  0  0  0  0  0  0  0  0  0  0  0
    2.1501   -0.0039    0.9938 H   0  0  0  0  0  0  0  0  0  0  0  0
    0.2929   -1.0361    0.6691 C   0  0  0  0  0  0  0  0  0  0  0  0
    0.6885   -2.0010    0.9554 H   0  0  0  0  0  0  0  0  0  0  0  0
   -1.0428   -0.9167    0.2882 C   0  0  0  0  0  0  0  0  0  0  0  0
   -1.6827   -1.7885    0.2793 H   0  0  0  0  0  0  0  0  0  0  0  0
   -1.5536    0.3273   -0.0799 C   0  0  0  0  0  0  0  0  0  0  0  0
   -2.5892    0.4203   -0.3773 H   0  0  0  0  0  0  0  0  0  0  0  0
   -0.7280    1.4508   -0.0668 C   0  0  0  0  0  0  0  0  0  0  0  0
   -1.1236    2.4157   -0.3539 H   0  0  0  0  0  0  0  0  0  0  0  0
    0.4354   -0.2958    3.8800 C   0  0  0  0  0  0  0  0  0  0  0  0
    1.6309   -0.1318    3.9565 O   0  0  0  0  0  0  0  0  0  0  0  0
   -0.1441   -1.5072    4.0794 O   0  0  0  0  0  0  0  0  0  0  0  0
    0.5903   -2.1083    4.2725 H   0  0  0  0  0  0  0  0  0  0  0  0
   -0.5865    0.7482    3.5593 C   0  0  0  0  0  0  0  0  0  0  0  0
   -0.1082    1.7191    3.5125 H   0  0  0  0  0  0  0  0  0  0  0  0
   -1.0393    0.5150    2.5966 H   0  0  0  0  0  0  0  0  0  0  0  0
   -1.3713    0.7426    4.3118 H   0  0  0  0  0  0  0  0  0  0  0  0
  1  2  1  0  0  0  0
  1  3  1  0  0  0  0
  3  4  1  0  0  0  0
  5  3  2  0  0  0  0
  5  6  1  0  0  0  0
  7  5  1  0  0  0  0
  8  7  1  0  0  0  0
  9 11  1  0  0  0  0
  9  7  2  0  0  0  0
 10  9  1  0  0  0  0
 11  1  2  0  0  0  0
 12 11  1  0  0  0  0
 13 14  2  0  0  0  0
 13 15  1  0  0  0  0
 15 16  1  0  0  0  0
 17 13  1  0  0  0  0
 17 20  1  0  0  0  0
 18 17  1  0  0  0  0
 19 17  1  0  0  0  0
M  END
>  <SMILES>
c1ccccc1.C(=O)(O)C

>  <MoleculeName>
BenzeneAcOH095

>  <Distance Scale>
0.95

>  <Energy Value>
-3.6

$$$$
/home/S66X8/3151_57BenzenePeptideNHpi110.xyz
 OpenBabel06262409173D

 24 23  0  0  0  0  0  0  0  0999 V2000
    0.4088    1.0510    0.3755 C   0  0  0  0  0  0  0  0  0  0  0  0
    1.0119    1.9485    0.3681 H   0  0  0  0  0  0  0  0  0  0  0  0
    1.0192   -0.1998    0.2891 C   0  0  0  0  0  0  0  0  0  0  0  0
    2.0956   -0.2718    0.2172 H   0  0  0  0  0  0  0  0  0  0  0  0
    0.2417   -1.3569    0.2967 C   0  0  0  0  0  0  0  0  0  0  0  0
    0.7152   -2.3266    0.2281 H   0  0  0  0  0  0  0  0  0  0  0  0
   -1.1462   -1.2643    0.3939 C   0  0  0  0  0  0  0  0  0  0  0  0
   -1.7492   -2.1619    0.3994 H   0  0  0  0  0  0  0  0  0  0  0  0
   -1.7573   -0.0140    0.4830 C   0  0  0  0  0  0  0  0  0  0  0  0
   -2.8335    0.0582    0.5590 H   0  0  0  0  0  0  0  0  0  0  0  0
   -0.9797    1.1442    0.4723 C   0  0  0  0  0  0  0  0  0  0  0  0
   -1.4541    2.1140    0.5371 H   0  0  0  0  0  0  0  0  0  0  0  0
    0.2510    1.9692    4.5469 C   0  0  0  0  0  0  0  0  0  0  0  0
   -0.1071    2.1350    3.5336 H   0  0  0  0  0  0  0  0  0  0  0  0
    1.2756    2.3260    4.6284 H   0  0  0  0  0  0  0  0  0  0  0  0
   -0.3531    2.5429    5.2453 H   0  0  0  0  0  0  0  0  0  0  0  0
    0.2142    0.5161    4.9626 C   0  0  0  0  0  0  0  0  0  0  0  0
    0.4988    0.1637    6.1012 O   0  0  0  0  0  0  0  0  0  0  0  0
   -0.1582   -0.3496    3.9834 N   0  0  0  0  0  0  0  0  0  0  0  0
   -0.3194    0.0084    3.0573 H   0  0  0  0  0  0  0  0  0  0  0  0
   -0.1950   -1.7765    4.2015 C   0  0  0  0  0  0  0  0  0  0  0  0
   -0.1169   -1.9434    5.2715 H   0  0  0  0  0  0  0  0  0  0  0  0
   -1.1303   -2.1949    3.8347 H   0  0  0  0  0  0  0  0  0  0  0  0
    0.6341   -2.2804    3.7041 H   0  0  0  0  0  0  0  0  0  0  0  0
  1 11  1  0  0  0  0
  2  1  1  0  0  0  0
  3  5  1  0  0  0  0
  3  1  2  0  0  0  0
  4  3  1  0  0  0  0
  5  7  2  0  0  0  0
  6  5  1  0  0  0  0
  7  8  1  0  0  0  0
  7  9  1  0  0  0  0
  9 10  1  0  0  0  0
 11  9  2  0  0  0  0
 11 12  1  0  0  0  0
 13 15  1  0  0  0  0
 13 17  1  0  0  0  0
 13 16  1  0  0  0  0
 14 13  1  0  0  0  0
 17 18  2  0  0  0  0
 19 21  1  0  0  0  0
 19 17  1  0  0  0  0
 20 19  1  0  0  0  0
 21 22  1  0  0  0  0
 23 21  1  0  0  0  0
 24 21  1  0  0  0  0
M  END
>  <SMILES>
c1ccccc1.CC(=O)NC

>  <MoleculeName>
BenzenePeptideNHpi110

>  <Distance Scale>
1.1

>  <Energy Value>
-4.78

$$$$
/home/S66X8/2734_05MeOHMeOH105.xyz
 OpenBabel06262409173D

 12 10  0  0  0  0  0  0  0  0999 V2000
   -0.6361   -0.0233    0.2806 O   0  0  0  0  0  0  0  0  0  0  0  0
    0.3081   -0.0471    0.0765 H   0  0  0  0  0  0  0  0  0  0  0  0
   -1.1521   -1.3113    0.0153 C   0  0  0  0  0  0  0  0  0  0  0  0
   -2.2099   -1.2963    0.2640 H   0  0  0  0  0  0  0  0  0  0  0  0
   -1.0566   -1.5927   -1.0362 H   0  0  0  0  0  0  0  0  0  0  0  0
   -0.6748   -2.0863    0.6205 H   0  0  0  0  0  0  0  0  0  0  0  0
    2.3380   -0.1272   -0.0180 O   0  0  0  0  0  0  0  0  0  0  0  0
    2.8068    0.4872   -0.5877 H   0  0  0  0  0  0  0  0  0  0  0  0
    2.8468    0.0299    1.3037 C   0  0  0  0  0  0  0  0  0  0  0  0
    2.2933   -0.6583    1.9338 H   0  0  0  0  0  0  0  0  0  0  0  0
    3.9058   -0.2206    1.3604 H   0  0  0  0  0  0  0  0  0  0  0  0
    2.6944    1.0406    1.6816 H   0  0  0  0  0  0  0  0  0  0  0  0
  2  1  1  0  0  0  0
  3  4  1  0  0  0  0
  3  1  1  0  0  0  0
  3  6  1  0  0  0  0
  5  3  1  0  0  0  0
  7  9  1  0  0  0  0
  8  7  1  0  0  0  0
  9 11  1  0  0  0  0
  9 12  1  0  0  0  0
  9 10  1  0  0  0  0
M  END
>  <SMILES>
OC.OC

>  <MoleculeName>
MeOHMeOH105

>  <Distance Scale>
1.05

>  <Energy Value>
-5.58

$$$$
/home/S66X8/2799_13PeptideMeOH110.xyz
 OpenBabel06262409173D

 18 16  0  0  0  0  0  0  0  0999 V2000
   -0.8493   -0.3395    2.4917 C   0  0  0  0  0  0  0  0  0  0  0  0
    0.1843   -0.0110    2.4162 H   0  0  0  0  0  0  0  0  0  0  0  0
   -0.8825   -1.3421    2.9127 H   0  0  0  0  0  0  0  0  0  0  0  0
   -1.3908    0.3169    3.1684 H   0  0  0  0  0  0  0  0  0  0  0  0
   -1.5640   -0.3533    1.1595 C   0  0  0  0  0  0  0  0  0  0  0  0
   -2.7495   -0.6515    1.0568 O   0  0  0  0  0  0  0  0  0  0  0  0
   -0.8017   -0.0274    0.0883 N   0  0  0  0  0  0  0  0  0  0  0  0
    0.1612    0.2404    0.2187 H   0  0  0  0  0  0  0  0  0  0  0  0
   -1.3853   -0.0024   -1.2341 C   0  0  0  0  0  0  0  0  0  0  0  0
   -1.8916   -0.9428   -1.4401 H   0  0  0  0  0  0  0  0  0  0  0  0
   -2.1200    0.7962   -1.3309 H   0  0  0  0  0  0  0  0  0  0  0  0
   -0.5946    0.1496   -1.9631 H   0  0  0  0  0  0  0  0  0  0  0  0
    2.3620    0.2533    0.4805 O   0  0  0  0  0  0  0  0  0  0  0  0
    3.0829    0.8806    0.5709 H   0  0  0  0  0  0  0  0  0  0  0  0
    2.8811   -1.0520    0.7144 C   0  0  0  0  0  0  0  0  0  0  0  0
    2.0485   -1.7408    0.6088 H   0  0  0  0  0  0  0  0  0  0  0  0
    3.6472   -1.3210   -0.0125 H   0  0  0  0  0  0  0  0  0  0  0  0
    3.2892   -1.1535    1.7200 H   0  0  0  0  0  0  0  0  0  0  0  0
  1  3  1  0  0  0  0
  1  4  1  0  0  0  0
  2  1  1  0  0  0  0
  5  1  1  0  0  0  0
  6  5  2  0  0  0  0
  7  8  1  0  0  0  0
  7  5  1  0  0  0  0
  9  7  1  0  0  0  0
 10  9  1  0  0  0  0
 11  9  1  0  0  0  0
 12  9  1  0  0  0  0
 13 14  1  0  0  0  0
 13 15  1  0  0  0  0
 15 18  1  0  0  0  0
 16 15  1  0  0  0  0
 17 15  1  0  0  0  0
M  END
>  <SMILES>
CC(=O)NC.OC

>  <MoleculeName>
PeptideMeOH110

>  <Distance Scale>
1.1

>  <Energy Value>
-5.74

$$$$
/home/S66X8/2727_04WaterPeptide110.xyz
 OpenBabel06262409173D

 15 13  0  0  0  0  0  0  0  0999 V2000
   -0.3920   -0.3847    0.0761 O   0  0  0  0  0  0  0  0  0  0  0  0
   -0.9115    0.4138    0.1776 H   0  0  0  0  0  0  0  0  0  0  0  0
    0.5249   -0.0685    0.0905 H   0  0  0  0  0  0  0  0  0  0  0  0
    2.4302   -2.2207   -0.2343 C   0  0  0  0  0  0  0  0  0  0  0  0
    3.0802   -3.0818   -0.3672 H   0  0  0  0  0  0  0  0  0  0  0  0
    1.7493   -2.1433   -1.0782 H   0  0  0  0  0  0  0  0  0  0  0  0
    1.8172   -2.3595    0.6527 H   0  0  0  0  0  0  0  0  0  0  0  0
    3.1850   -0.9227   -0.1017 C   0  0  0  0  0  0  0  0  0  0  0  0
    2.6082    0.1526    0.0549 O   0  0  0  0  0  0  0  0  0  0  0  0
    4.5356   -1.0202   -0.1663 N   0  0  0  0  0  0  0  0  0  0  0  0
    4.9365   -1.9308   -0.2958 H   0  0  0  0  0  0  0  0  0  0  0  0
    5.4038    0.1318   -0.0569 C   0  0  0  0  0  0  0  0  0  0  0  0
    4.7673    1.0001    0.0779 H   0  0  0  0  0  0  0  0  0  0  0  0
    6.0694    0.0403    0.7992 H   0  0  0  0  0  0  0  0  0  0  0  0
    5.9983    0.2612   -0.9591 H   0  0  0  0  0  0  0  0  0  0  0  0
  1  3  1  0  0  0  0
  1  2  1  0  0  0  0
  4  8  1  0  0  0  0
  4  7  1  0  0  0  0
  5  4  1  0  0  0  0
  6  4  1  0  0  0  0
  8  9  2  0  0  0  0
 10  8  1  0  0  0  0
 10 12  1  0  0  0  0
 11 10  1  0  0  0  0
 12 13  1  0  0  0  0
 12 14  1  0  0  0  0
 15 12  1  0  0  0  0
M  END
>  <SMILES>
O.CC(=O)NC

>  <MoleculeName>
WaterPeptide110

>  <Distance Scale>
1.1

>  <Energy Value>
-7.46

$$$$
/home/S66X8/3099_51EthyneEthyneTS090.xyz
 OpenBabel06262409173D

  8  6  0  0  0  0  0  0  0  0999 V2000
   -0.6017   -0.0286    0.3849 C   0  0  0  0  0  0  0  0  0  0  0  0
   -1.6637   -0.0285    0.3790 H   0  0  0  0  0  0  0  0  0  0  0  0
    0.6101   -0.0287    0.3882 C   0  0  0  0  0  0  0  0  0  0  0  0
    1.6721   -0.0288    0.3880 H   0  0  0  0  0  0  0  0  0  0  0  0
   -0.0066    0.0910    3.8778 C   0  0  0  0  0  0  0  0  0  0  0  0
   -0.0032    0.0572    2.8145 H   0  0  0  0  0  0  0  0  0  0  0  0
   -0.0105    0.1293    5.0893 C   0  0  0  0  0  0  0  0  0  0  0  0
   -0.0138    0.1626    6.1502 H   0  0  0  0  0  0  0  0  0  0  0  0
  1  3  3  0  0  0  0
  2  1  1  0  0  0  0
  4  3  1  0  0  0  0
  5  7  3  0  0  0  0
  6  5  1  0  0  0  0
  7  8  1  0  0  0  0
M  END
>  <SMILES>
C#C.C#C

>  <MoleculeName>
EthyneEthyneTS090

>  <Distance Scale>
0.9

>  <Energy Value>
-1.21

$$$$
/home/S66X8/3019_41UracilPentane090.xyz
 OpenBabel06262409173D

 29 28  0  0  0  0  0  0  0  0999 V2000
   -0.2089   -0.9646    0.5348 N   0  0  0  0  0  0  0  0  0  0  0  0
   -0.2242   -1.9731    0.6051 H   0  0  0  0  0  0  0  0  0  0  0  0
   -1.4463   -0.3446    0.3067 C   0  0  0  0  0  0  0  0  0  0  0  0
   -2.4612   -1.0108    0.1979 O   0  0  0  0  0  0  0  0  0  0  0  0
   -1.3578    1.1032    0.2281 C   0  0  0  0  0  0  0  0  0  0  0  0
   -2.2566    1.6677    0.0498 H   0  0  0  0  0  0  0  0  0  0  0  0
   -0.1630    1.7099    0.3811 C   0  0  0  0  0  0  0  0  0  0  0  0
   -0.0463    2.7824    0.3333 H   0  0  0  0  0  0  0  0  0  0  0  0
    0.9855    1.0008    0.6112 N   0  0  0  0  0  0  0  0  0  0  0  0
    1.8676    1.4669    0.7448 H   0  0  0  0  0  0  0  0  0  0  0  0
    1.0270   -0.3792    0.7126 C   0  0  0  0  0  0  0  0  0  0  0  0
    2.0492   -0.9974    0.9373 O   0  0  0  0  0  0  0  0  0  0  0  0
    1.1194    2.3542    3.7956 C   0  0  0  0  0  0  0  0  0  0  0  0
    0.6886    2.6652    2.8428 H   0  0  0  0  0  0  0  0  0  0  0  0
    0.4852    2.7596    4.5839 H   0  0  0  0  0  0  0  0  0  0  0  0
    2.1023    2.8146    3.8887 H   0  0  0  0  0  0  0  0  0  0  0  0
    1.1925    0.8353    3.8851 C   0  0  0  0  0  0  0  0  0  0  0  0
    1.6228    0.5457    4.8464 H   0  0  0  0  0  0  0  0  0  0  0  0
    1.8670    0.4441    3.1200 H   0  0  0  0  0  0  0  0  0  0  0  0
   -0.1723    0.1771    3.7303 C   0  0  0  0  0  0  0  0  0  0  0  0
   -0.8436    0.5460    4.5119 H   0  0  0  0  0  0  0  0  0  0  0  0
   -0.6198    0.4874    2.7804 H   0  0  0  0  0  0  0  0  0  0  0  0
   -0.1160   -1.3435    3.7899 C   0  0  0  0  0  0  0  0  0  0  0  0
    0.3076   -1.6460    4.7506 H   0  0  0  0  0  0  0  0  0  0  0  0
    0.5755   -1.7054    3.0254 H   0  0  0  0  0  0  0  0  0  0  0  0
   -1.4853   -1.9854    3.6062 C   0  0  0  0  0  0  0  0  0  0  0  0
   -1.9237   -1.7120    2.6460 H   0  0  0  0  0  0  0  0  0  0  0  0
   -1.4284   -3.0722    3.6502 H   0  0  0  0  0  0  0  0  0  0  0  0
   -2.1733   -1.6571    4.3854 H   0  0  0  0  0  0  0  0  0  0  0  0
  1  2  1  0  0  0  0
  1 11  1  0  0  0  0
  3  1  1  0  0  0  0
  4  3  2  0  0  0  0
  5  3  1  0  0  0  0
  5  7  2  0  0  0  0
  6  5  1  0  0  0  0
  7  9  1  0  0  0  0
  8  7  1  0  0  0  0
  9 11  1  0  0  0  0
  9 10  1  0  0  0  0
 11 12  2  0  0  0  0
 13 17  1  0  0  0  0
 13 16  1  0  0  0  0
 13 15  1  0  0  0  0
 14 13  1  0  0  0  0
 17 18  1  0  0  0  0
 19 17  1  0  0  0  0
 20 23  1  0  0  0  0
 20 17  1  0  0  0  0
 20 21  1  0  0  0  0
 22 20  1  0  0  0  0
 23 24  1  0  0  0  0
 25 23  1  0  0  0  0
 26 28  1  0  0  0  0
 26 23  1  0  0  0  0
 26 29  1  0  0  0  0
 27 26  1  0  0  0  0
M  END
>  <SMILES>
[nH]1c(=O)cc[nH]c1=O.CCCCC

>  <MoleculeName>
UracilPentane090

>  <Distance Scale>
0.9

>  <Energy Value>
-3.83

$$$$
/home/S66X8/2935_30BenzeneEthene110.xyz
 OpenBabel06262409173D

 18 17  0  0  0  0  0  0  0  0999 V2000
    0.8355    1.1152    0.0214 C   0  0  0  0  0  0  0  0  0  0  0  0
    1.4843    1.9806    0.0195 H   0  0  0  0  0  0  0  0  0  0  0  0
    1.3833   -0.1661    0.0238 C   0  0  0  0  0  0  0  0  0  0  0  0
    2.4571   -0.2952    0.0228 H   0  0  0  0  0  0  0  0  0  0  0  0
    0.5476   -1.2813    0.0217 C   0  0  0  0  0  0  0  0  0  0  0  0
    0.9729   -2.2758    0.0198 H   0  0  0  0  0  0  0  0  0  0  0  0
   -0.8355   -1.1152    0.0214 C   0  0  0  0  0  0  0  0  0  0  0  0
   -1.4843   -1.9806    0.0195 H   0  0  0  0  0  0  0  0  0  0  0  0
   -1.3833    0.1662    0.0238 C   0  0  0  0  0  0  0  0  0  0  0  0
   -2.4572    0.2952    0.0228 H   0  0  0  0  0  0  0  0  0  0  0  0
   -0.5476    1.2813    0.0217 C   0  0  0  0  0  0  0  0  0  0  0  0
   -0.9729    2.2758    0.0198 H   0  0  0  0  0  0  0  0  0  0  0  0
    0.6558   -0.1168    3.8096 C   0  0  0  0  0  0  0  0  0  0  0  0
    1.0472   -1.1239    3.8051 H   0  0  0  0  0  0  0  0  0  0  0  0
    1.3709    0.6933    3.8051 H   0  0  0  0  0  0  0  0  0  0  0  0
   -0.6558    0.1168    3.8096 C   0  0  0  0  0  0  0  0  0  0  0  0
   -1.3708   -0.6933    3.8051 H   0  0  0  0  0  0  0  0  0  0  0  0
   -1.0472    1.1239    3.8051 H   0  0  0  0  0  0  0  0  0  0  0  0
  1 11  2  0  0  0  0
  1  3  1  0  0  0  0
  2  1  1  0  0  0  0
  4  3  1  0  0  0  0
  5  3  2  0  0  0  0
  6  5  1  0  0  0  0
  7  5  1  0  0  0  0
  7  9  2  0  0  0  0
  8  7  1  0  0  0  0
 10  9  1  0  0  0  0
 11  9  1  0  0  0  0
 12 11  1  0  0  0  0
 13 16  2  0  0  0  0
 14 13  1  0  0  0  0
 15 13  1  0  0  0  0
 17 16  1  0  0  0  0
 18 16  1  0  0  0  0
M  END
>  <SMILES>
c1ccccc1.C=C

>  <MoleculeName>
BenzeneEthene110

>  <Distance Scale>
1.1

>  <Energy Value>
-1.26

$$$$
/home/S66X8/2973_35NeopentanePentane100.xyz
 OpenBabel06262409173D

 34 32  0  0  0  0  0  0  0  0999 V2000
   -2.5304   -0.4176    0.6813 C   0  0  0  0  0  0  0  0  0  0  0  0
   -2.5599   -0.9828   -0.2502 H   0  0  0  0  0  0  0  0  0  0  0  0
   -2.5540   -1.1339    1.5027 H   0  0  0  0  0  0  0  0  0  0  0  0
   -3.4362    0.1841    0.7368 H   0  0  0  0  0  0  0  0  0  0  0  0
   -1.2762    0.4436    0.7500 C   0  0  0  0  0  0  0  0  0  0  0  0
   -1.2781    1.0252    1.6751 H   0  0  0  0  0  0  0  0  0  0  0  0
   -1.2803    1.1686   -0.0672 H   0  0  0  0  0  0  0  0  0  0  0  0
    0.0022   -0.3807    0.6790 C   0  0  0  0  0  0  0  0  0  0  0  0
    0.0078   -1.1114    1.4938 H   0  0  0  0  0  0  0  0  0  0  0  0
    0.0062   -0.9605   -0.2488 H   0  0  0  0  0  0  0  0  0  0  0  0
    1.2683    0.4624    0.7494 C   0  0  0  0  0  0  0  0  0  0  0  0
    1.2620    1.0443    1.6742 H   0  0  0  0  0  0  0  0  0  0  0  0
    1.2616    1.1871   -0.0680 H   0  0  0  0  0  0  0  0  0  0  0  0
    2.5350   -0.3804    0.6807 C   0  0  0  0  0  0  0  0  0  0  0  0
    2.5724   -0.9457   -0.2505 H   0  0  0  0  0  0  0  0  0  0  0  0
    3.4320    0.2344    0.7356 H   0  0  0  0  0  0  0  0  0  0  0  0
    2.5692   -1.0958    1.5025 H   0  0  0  0  0  0  0  0  0  0  0  0
   -0.0005    0.0647    5.2663 C   0  0  0  0  0  0  0  0  0  0  0  0
    0.0005   -0.0754    6.7861 C   0  0  0  0  0  0  0  0  0  0  0  0
   -0.8865    0.3886    7.2194 H   0  0  0  0  0  0  0  0  0  0  0  0
    0.0098   -1.1262    7.0791 H   0  0  0  0  0  0  0  0  0  0  0  0
    0.8792    0.4042    7.2197 H   0  0  0  0  0  0  0  0  0  0  0  0
   -1.2400   -0.6170    4.6924 C   0  0  0  0  0  0  0  0  0  0  0  0
   -1.2633   -0.5280    3.6056 H   0  0  0  0  0  0  0  0  0  0  0  0
   -1.2521   -1.6782    4.9454 H   0  0  0  0  0  0  0  0  0  0  0  0
   -2.1509   -0.1647    5.0875 H   0  0  0  0  0  0  0  0  0  0  0  0
    1.2521   -0.5929    4.6929 C   0  0  0  0  0  0  0  0  0  0  0  0
    1.2734   -0.5046    3.6059 H   0  0  0  0  0  0  0  0  0  0  0  0
    1.2852   -1.6534    4.9470 H   0  0  0  0  0  0  0  0  0  0  0  0
    2.1539   -0.1222    5.0873 H   0  0  0  0  0  0  0  0  0  0  0  0
   -0.0148    1.5445    4.8917 C   0  0  0  0  0  0  0  0  0  0  0  0
    0.8630    2.0551    5.2907 H   0  0  0  0  0  0  0  0  0  0  0  0
   -0.0153    1.6709    3.8081 H   0  0  0  0  0  0  0  0  0  0  0  0
   -0.9029    2.0378    5.2895 H   0  0  0  0  0  0  0  0  0  0  0  0
  1  4  1  0  0  0  0
  1  5  1  0  0  0  0
  1  3  1  0  0  0  0
  2  1  1  0  0  0  0
  5  6  1  0  0  0  0
  7  5  1  0  0  0  0
  8 11  1  0  0  0  0
  8  5  1  0  0  0  0
  8  9  1  0  0  0  0
 10  8  1  0  0  0  0
 11 12  1  0  0  0  0
 13 11  1  0  0  0  0
 14 16  1  0  0  0  0
 14 11  1  0  0  0  0
 14 17  1  0  0  0  0
 15 14  1  0  0  0  0
 18 19  1  0  0  0  0
 19 21  1  0  0  0  0
 19 20  1  0  0  0  0
 19 22  1  0  0  0  0
 23 25  1  0  0  0  0
 23 26  1  0  0  0  0
 23 18  1  0  0  0  0
 24 23  1  0  0  0  0
 27 29  1  0  0  0  0
 27 30  1  0  0  0  0
 27 18  1  0  0  0  0
 28 27  1  0  0  0  0
 31 18  1  0  0  0  0
 31 34  1  0  0  0  0
 31 32  1  0  0  0  0
 33 31  1  0  0  0  0
M  END
>  <SMILES>
CCCCC.C(C)(C)(C)C

>  <MoleculeName>
NeopentanePentane100

>  <Distance Scale>
1.0

>  <Energy Value>
-2.61

$$$$
/home/S66X8/3107_52BenzeneAcOHOHpi090.xyz
 OpenBabel06262409173D

 20 19  0  0  0  0  0  0  0  0999 V2000
    0.9641    0.8751    0.3780 C   0  0  0  0  0  0  0  0  0  0  0  0
    1.6598    1.6999    0.4460 H   0  0  0  0  0  0  0  0  0  0  0  0
    1.4311   -0.4131    0.1190 C   0  0  0  0  0  0  0  0  0  0  0  0
    2.4895   -0.5872   -0.0170 H   0  0  0  0  0  0  0  0  0  0  0  0
    0.5341   -1.4776    0.0424 C   0  0  0  0  0  0  0  0  0  0  0  0
    0.8970   -2.4774   -0.1520 H   0  0  0  0  0  0  0  0  0  0  0  0
   -0.8303   -1.2536    0.2209 C   0  0  0  0  0  0  0  0  0  0  0  0
   -1.5258   -2.0796    0.1641 H   0  0  0  0  0  0  0  0  0  0  0  0
   -1.2976    0.0344    0.4802 C   0  0  0  0  0  0  0  0  0  0  0  0
   -2.3544    0.2080    0.6286 H   0  0  0  0  0  0  0  0  0  0  0  0
   -0.4004    1.0998    0.5616 C   0  0  0  0  0  0  0  0  0  0  0  0
   -0.7605    2.0938    0.7848 H   0  0  0  0  0  0  0  0  0  0  0  0
   -0.1381    0.5711    4.1132 C   0  0  0  0  0  0  0  0  0  0  0  0
   -0.6063    1.6206    3.7340 O   0  0  0  0  0  0  0  0  0  0  0  0
    0.2651   -0.4064    3.2739 O   0  0  0  0  0  0  0  0  0  0  0  0
    0.0964   -0.0805    2.3725 H   0  0  0  0  0  0  0  0  0  0  0  0
    0.0719    0.1741    5.5446 C   0  0  0  0  0  0  0  0  0  0  0  0
   -0.2381    0.9835    6.1946 H   0  0  0  0  0  0  0  0  0  0  0  0
   -0.5042   -0.7225    5.7616 H   0  0  0  0  0  0  0  0  0  0  0  0
    1.1204   -0.0620    5.7097 H   0  0  0  0  0  0  0  0  0  0  0  0
  1  2  1  0  0  0  0
  1 11  1  0  0  0  0
  3  1  2  0  0  0  0
  4  3  1  0  0  0  0
  5  3  1  0  0  0  0
  5  7  2  0  0  0  0
  6  5  1  0  0  0  0
  7  9  1  0  0  0  0
  8  7  1  0  0  0  0
  9 11  2  0  0  0  0
  9 10  1  0  0  0  0
 11 12  1  0  0  0  0
 13 17  1  0  0  0  0
 14 13  2  0  0  0  0
 15 13  1  0  0  0  0
 16 15  1  0  0  0  0
 17 20  1  0  0  0  0
 17 19  1  0  0  0  0
 17 18  1  0  0  0  0
M  END
>  <SMILES>
c1ccccc1.C(=O)(O)C

>  <MoleculeName>
BenzeneAcOHOHpi090

>  <Distance Scale>
0.9

>  <Energy Value>
-3.97

$$$$
/home/S66X8/3172_60EthyneAcOHOHpi095.xyz
 OpenBabel06262409173D

 12 10  0  0  0  0  0  0  0  0999 V2000
   -0.6106    0.2275   -0.1706 C   0  0  0  0  0  0  0  0  0  0  0  0
    0.1074    0.8614   -0.6342 H   0  0  0  0  0  0  0  0  0  0  0  0
   -1.3863   -0.5253    0.3800 C   0  0  0  0  0  0  0  0  0  0  0  0
   -2.0807   -1.1741    0.8544 H   0  0  0  0  0  0  0  0  0  0  0  0
    2.7569   -0.6070    0.4406 C   0  0  0  0  0  0  0  0  0  0  0  0
    2.5027    0.3491   -0.2582 O   0  0  0  0  0  0  0  0  0  0  0  0
    1.8090   -1.3813    1.0083 O   0  0  0  0  0  0  0  0  0  0  0  0
    0.9480   -1.0140    0.7405 H   0  0  0  0  0  0  0  0  0  0  0  0
    4.1325   -1.0884    0.7908 C   0  0  0  0  0  0  0  0  0  0  0  0
    4.8709   -0.4509    0.3199 H   0  0  0  0  0  0  0  0  0  0  0  0
    4.2587   -1.0766    1.8708 H   0  0  0  0  0  0  0  0  0  0  0  0
    4.2548   -2.1163    0.4575 H   0  0  0  0  0  0  0  0  0  0  0  0
  1  3  3  0  0  0  0
  2  1  1  0  0  0  0
  3  4  1  0  0  0  0
  5  9  1  0  0  0  0
  5  7  1  0  0  0  0
  6  5  2  0  0  0  0
  8  7  1  0  0  0  0
  9 11  1  0  0  0  0
 10  9  1  0  0  0  0
 12  9  1  0  0  0  0
M  END
>  <SMILES>
C#C.C(=O)(O)C

>  <MoleculeName>
EthyneAcOHOHpi095

>  <Distance Scale>
0.95

>  <Energy Value>
-4.78

$$$$
/home/S66X8/2868_22AcOHUracil095.xyz
 OpenBabel06262409173D

 20 19  0  0  0  0  0  0  0  0999 V2000
   -1.1136    1.3270    0.2752 C   0  0  0  0  0  0  0  0  0  0  0  0
   -0.4671    2.3494    0.4615 O   0  0  0  0  0  0  0  0  0  0  0  0
   -0.5781    0.1369    0.0496 O   0  0  0  0  0  0  0  0  0  0  0  0
    0.4133    0.2033    0.0555 H   0  0  0  0  0  0  0  0  0  0  0  0
   -2.6114    1.2862    0.2774 C   0  0  0  0  0  0  0  0  0  0  0  0
   -3.0066    2.2769    0.4658 H   0  0  0  0  0  0  0  0  0  0  0  0
   -2.9643    0.9153   -0.6820 H   0  0  0  0  0  0  0  0  0  0  0  0
   -2.9531    0.5918    1.0412 H   0  0  0  0  0  0  0  0  0  0  0  0
    4.1118    1.0860    0.1832 N   0  0  0  0  0  0  0  0  0  0  0  0
    4.5050    0.1706    0.0115 H   0  0  0  0  0  0  0  0  0  0  0  0
    5.0333    2.1341    0.3646 C   0  0  0  0  0  0  0  0  0  0  0  0
    6.2305    1.9158    0.3117 O   0  0  0  0  0  0  0  0  0  0  0  0
    4.3943    3.4136    0.6052 C   0  0  0  0  0  0  0  0  0  0  0  0
    5.0138    4.2805    0.7567 H   0  0  0  0  0  0  0  0  0  0  0  0
    3.0472    3.4936    0.6346 C   0  0  0  0  0  0  0  0  0  0  0  0
    2.5243    4.4220    0.8099 H   0  0  0  0  0  0  0  0  0  0  0  0
    2.2435    2.4029    0.4442 N   0  0  0  0  0  0  0  0  0  0  0  0
    1.2194    2.4728    0.4680 H   0  0  0  0  0  0  0  0  0  0  0  0
    2.7434    1.1527    0.2100 C   0  0  0  0  0  0  0  0  0  0  0  0
    2.0314    0.1632    0.0366 O   0  0  0  0  0  0  0  0  0  0  0  0
  1  5  1  0  0  0  0
  1  2  2  0  0  0  0
  3  4  1  0  0  0  0
  3  1  1  0  0  0  0
  5  6  1  0  0  0  0
  5  8  1  0  0  0  0
  7  5  1  0  0  0  0
  9 19  1  0  0  0  0
  9 11  1  0  0  0  0
 10  9  1  0  0  0  0
 11 13  1  0  0  0  0
 12 11  2  0  0  0  0
 13 15  2  0  0  0  0
 13 14  1  0  0  0  0
 15 16  1  0  0  0  0
 17 18  1  0  0  0  0
 17 15  1  0  0  0  0
 19 17  1  0  0  0  0
 20 19  2  0  0  0  0
M  END
>  <SMILES>
C(=O)(O)C.[nH]1c(=O)cc[nH]c1=O

>  <MoleculeName>
AcOHUracil095

>  <Distance Scale>
0.95

>  <Energy Value>
-19.19

$$$$
/home/S66X8/3105_51EthyneEthyneTS150.xyz
 OpenBabel06262409173D

  8  6  0  0  0  0  0  0  0  0999 V2000
   -0.6017   -0.0286    0.3849 C   0  0  0  0  0  0  0  0  0  0  0  0
   -1.6637   -0.0285    0.3790 H   0  0  0  0  0  0  0  0  0  0  0  0
    0.6101   -0.0287    0.3882 C   0  0  0  0  0  0  0  0  0  0  0  0
    1.6721   -0.0288    0.3880 H   0  0  0  0  0  0  0  0  0  0  0  0
   -0.0117    0.1510    5.5760 C   0  0  0  0  0  0  0  0  0  0  0  0
   -0.0083    0.1173    4.5127 H   0  0  0  0  0  0  0  0  0  0  0  0
   -0.0156    0.1893    6.7875 C   0  0  0  0  0  0  0  0  0  0  0  0
   -0.0189    0.2227    7.8484 H   0  0  0  0  0  0  0  0  0  0  0  0
  1  3  3  0  0  0  0
  2  1  1  0  0  0  0
  4  3  1  0  0  0  0
  5  7  3  0  0  0  0
  6  5  1  0  0  0  0
  7  8  1  0  0  0  0
M  END
>  <SMILES>
C#C.C#C

>  <MoleculeName>
EthyneEthyneTS150

>  <Distance Scale>
1.5

>  <Energy Value>
-0.46

$$$$
/home/S66X8/3081_48PyridinePyridineTS150.xyz
 OpenBabel06262409173D

 22 22  0  0  0  0  0  0  0  0999 V2000
    1.3228   -0.0104    1.0192 N   0  0  0  0  0  0  0  0  0  0  0  0
    0.6513   -1.1490    0.7968 C   0  0  0  0  0  0  0  0  0  0  0  0
    1.2004   -2.0655    0.9737 H   0  0  0  0  0  0  0  0  0  0  0  0
   -0.6727   -1.1947    0.3667 C   0  0  0  0  0  0  0  0  0  0  0  0
   -1.1572   -2.1473    0.2065 H   0  0  0  0  0  0  0  0  0  0  0  0
   -1.3472    0.0031    0.1521 C   0  0  0  0  0  0  0  0  0  0  0  0
   -2.3754    0.0084   -0.1823 H   0  0  0  0  0  0  0  0  0  0  0  0
   -0.6646    1.1941    0.3790 C   0  0  0  0  0  0  0  0  0  0  0  0
   -1.1426    2.1516    0.2287 H   0  0  0  0  0  0  0  0  0  0  0  0
    0.6589    1.1350    0.8089 C   0  0  0  0  0  0  0  0  0  0  0  0
    1.2141    2.0459    0.9954 H   0  0  0  0  0  0  0  0  0  0  0  0
    0.0596   -0.0064    8.1025 N   0  0  0  0  0  0  0  0  0  0  0  0
    0.9303   -0.0121    7.0831 C   0  0  0  0  0  0  0  0  0  0  0  0
    1.9782   -0.0108    7.3574 H   0  0  0  0  0  0  0  0  0  0  0  0
    0.5569   -0.0191    5.7413 C   0  0  0  0  0  0  0  0  0  0  0  0
    1.3044   -0.0233    4.9602 H   0  0  0  0  0  0  0  0  0  0  0  0
   -0.7991   -0.0205    5.4289 C   0  0  0  0  0  0  0  0  0  0  0  0
   -1.1288   -0.0260    4.3986 H   0  0  0  0  0  0  0  0  0  0  0  0
   -1.7172   -0.0148    6.4740 C   0  0  0  0  0  0  0  0  0  0  0  0
   -2.7817   -0.0157    6.2853 H   0  0  0  0  0  0  0  0  0  0  0  0
   -1.2416   -0.0079    7.7830 C   0  0  0  0  0  0  0  0  0  0  0  0
   -1.9338   -0.0033    8.6162 H   0  0  0  0  0  0  0  0  0  0  0  0
  2  3  1  0  0  0  0
  2  1  2  0  0  0  0
  4  2  1  0  0  0  0
  5  4  1  0  0  0  0
  6  4  2  0  0  0  0
  6  8  1  0  0  0  0
  7  6  1  0  0  0  0
  8 10  2  0  0  0  0
  9  8  1  0  0  0  0
 10 11  1  0  0  0  0
 10  1  1  0  0  0  0
 13 14  1  0  0  0  0
 13 12  2  0  0  0  0
 15 13  1  0  0  0  0
 16 15  1  0  0  0  0
 17 15  2  0  0  0  0
 17 19  1  0  0  0  0
 18 17  1  0  0  0  0
 19 21  2  0  0  0  0
 20 19  1  0  0  0  0
 21 12  1  0  0  0  0
 21 22  1  0  0  0  0
M  END
>  <SMILES>
n1ccccc1.n1ccccc1

>  <MoleculeName>
PyridinePyridineTS150

>  <Distance Scale>
1.5

>  <Energy Value>
-1.18

$$$$
/home/S66X8/2763_09MeNH2MeOH090.xyz
 OpenBabel06262409173D

 13 11  0  0  0  0  0  0  0  0999 V2000
   -0.8935   -0.0438   -0.0430 N   0  0  0  0  0  0  0  0  0  0  0  0
    0.0969   -0.2561   -0.0711 H   0  0  0  0  0  0  0  0  0  0  0  0
   -1.3684   -0.9334    0.0338 H   0  0  0  0  0  0  0  0  0  0  0  0
   -1.1758    0.7579    1.1452 C   0  0  0  0  0  0  0  0  0  0  0  0
   -2.2416    0.9722    1.1950 H   0  0  0  0  0  0  0  0  0  0  0  0
   -0.8808    0.3042    2.0972 H   0  0  0  0  0  0  0  0  0  0  0  0
   -0.6630    1.7143    1.0608 H   0  0  0  0  0  0  0  0  0  0  0  0
    2.1221   -0.0630    0.0205 O   0  0  0  0  0  0  0  0  0  0  0  0
    2.4041    0.3070   -0.8194 H   0  0  0  0  0  0  0  0  0  0  0  0
    2.5080    0.8486    1.0399 C   0  0  0  0  0  0  0  0  0  0  0  0
    2.1849    0.4190    1.9830 H   0  0  0  0  0  0  0  0  0  0  0  0
    3.5891    0.9877    1.0790 H   0  0  0  0  0  0  0  0  0  0  0  0
    2.0296    1.8222    0.9247 H   0  0  0  0  0  0  0  0  0  0  0  0
  1  3  1  0  0  0  0
  1  4  1  0  0  0  0
  2  1  1  0  0  0  0
  4  5  1  0  0  0  0
  4  6  1  0  0  0  0
  7  4  1  0  0  0  0
  8 10  1  0  0  0  0
  9  8  1  0  0  0  0
 10 12  1  0  0  0  0
 10 11  1  0  0  0  0
 13 10  1  0  0  0  0
M  END
>  <SMILES>
NC.OC

>  <MoleculeName>
MeNH2MeOH090

>  <Distance Scale>
0.9

>  <Energy Value>
-2.81

$$$$
/home/S66X8/2948_32UracilEthyne095.xyz
 OpenBabel06262409173D

 16 15  0  0  0  0  0  0  0  0999 V2000
   -0.0555   -0.9480    0.0100 N   0  0  0  0  0  0  0  0  0  0  0  0
   -0.0573   -1.9577    0.0551 H   0  0  0  0  0  0  0  0  0  0  0  0
   -1.3140   -0.3351   -0.0646 C   0  0  0  0  0  0  0  0  0  0  0  0
   -2.3289   -1.0079   -0.1231 O   0  0  0  0  0  0  0  0  0  0  0  0
   -1.2484    1.1161   -0.0665 C   0  0  0  0  0  0  0  0  0  0  0  0
   -2.1643    1.6753   -0.1471 H   0  0  0  0  0  0  0  0  0  0  0  0
   -0.0531    1.7314    0.0342 C   0  0  0  0  0  0  0  0  0  0  0  0
    0.0481    2.8064    0.0434 H   0  0  0  0  0  0  0  0  0  0  0  0
    1.1159    1.0276    0.1352 N   0  0  0  0  0  0  0  0  0  0  0  0
    1.9967    1.4973    0.2616 H   0  0  0  0  0  0  0  0  0  0  0  0
    1.1753   -0.3538    0.1762 C   0  0  0  0  0  0  0  0  0  0  0  0
    2.2146   -0.9665    0.3352 O   0  0  0  0  0  0  0  0  0  0  0  0
    0.7003   -0.1734    3.1357 C   0  0  0  0  0  0  0  0  0  0  0  0
    1.6961   -0.5273    3.0215 H   0  0  0  0  0  0  0  0  0  0  0  0
   -0.4443    0.2131    3.2419 C   0  0  0  0  0  0  0  0  0  0  0  0
   -1.4492    0.5418    3.3423 H   0  0  0  0  0  0  0  0  0  0  0  0
  1  2  1  0  0  0  0
  1 11  1  0  0  0  0
  3  1  1  0  0  0  0
  4  3  2  0  0  0  0
  5  3  1  0  0  0  0
  5  7  2  0  0  0  0
  6  5  1  0  0  0  0
  7  8  1  0  0  0  0
  7  9  1  0  0  0  0
  9 11  1  0  0  0  0
  9 10  1  0  0  0  0
 11 12  2  0  0  0  0
 13 15  3  0  0  0  0
 14 13  1  0  0  0  0
 15 16  1  0  0  0  0
M  END
>  <SMILES>
[nH]1c(=O)cc[nH]c1=O.C#C

>  <MoleculeName>
UracilEthyne095

>  <Distance Scale>
0.95

>  <Energy Value>
-3.56

$$$$
/home/S66X8/3178_60EthyneAcOHOHpi200.xyz
 OpenBabel06262409173D

 12 10  0  0  0  0  0  0  0  0999 V2000
   -0.6106    0.2275   -0.1706 C   0  0  0  0  0  0  0  0  0  0  0  0
    0.1074    0.8614   -0.6342 H   0  0  0  0  0  0  0  0  0  0  0  0
   -1.3863   -0.5253    0.3800 C   0  0  0  0  0  0  0  0  0  0  0  0
   -2.0807   -1.1741    0.8544 H   0  0  0  0  0  0  0  0  0  0  0  0
    4.9157   -1.5665    1.1458 C   0  0  0  0  0  0  0  0  0  0  0  0
    4.6615   -0.6104    0.4470 O   0  0  0  0  0  0  0  0  0  0  0  0
    3.9678   -2.3408    1.7135 O   0  0  0  0  0  0  0  0  0  0  0  0
    3.1068   -1.9735    1.4457 H   0  0  0  0  0  0  0  0  0  0  0  0
    6.2914   -2.0479    1.4960 C   0  0  0  0  0  0  0  0  0  0  0  0
    7.0297   -1.4104    1.0251 H   0  0  0  0  0  0  0  0  0  0  0  0
    6.4176   -2.0361    2.5760 H   0  0  0  0  0  0  0  0  0  0  0  0
    6.4136   -3.0758    1.1627 H   0  0  0  0  0  0  0  0  0  0  0  0
  1  3  3  0  0  0  0
  2  1  1  0  0  0  0
  3  4  1  0  0  0  0
  5  9  1  0  0  0  0
  5  7  1  0  0  0  0
  6  5  2  0  0  0  0
  8  7  1  0  0  0  0
  9 11  1  0  0  0  0
 10  9  1  0  0  0  0
 12  9  1  0  0  0  0
M  END
>  <SMILES>
C#C.C(=O)(O)C

>  <MoleculeName>
EthyneAcOHOHpi200

>  <Distance Scale>
2.0

>  <Energy Value>
-0.56

$$$$
/home/S66X8/3217_65PyridineEthyne150.xyz
 OpenBabel06262409173D

 15 14  0  0  0  0  0  0  0  0999 V2000
   -0.0830    0.0007    1.0552 N   0  0  0  0  0  0  0  0  0  0  0  0
   -0.2029   -1.1417    0.3649 C   0  0  0  0  0  0  0  0  0  0  0  0
   -0.0985   -2.0551    0.9374 H   0  0  0  0  0  0  0  0  0  0  0  0
   -0.4468   -1.1918   -1.0045 C   0  0  0  0  0  0  0  0  0  0  0  0
   -0.5336   -2.1459   -1.5042 H   0  0  0  0  0  0  0  0  0  0  0  0
   -0.5747    0.0034   -1.7043 C   0  0  0  0  0  0  0  0  0  0  0  0
   -0.7637    0.0045   -2.7687 H   0  0  0  0  0  0  0  0  0  0  0  0
   -0.4535    1.1972   -1.0009 C   0  0  0  0  0  0  0  0  0  0  0  0
   -0.5456    2.1523   -1.4978 H   0  0  0  0  0  0  0  0  0  0  0  0
   -0.2093    1.1445    0.3684 C   0  0  0  0  0  0  0  0  0  0  0  0
   -0.1102    2.0567    0.9436 H   0  0  0  0  0  0  0  0  0  0  0  0
    0.6275   -0.0097    6.6740 C   0  0  0  0  0  0  0  0  0  0  0  0
    0.7429   -0.0091    7.7290 H   0  0  0  0  0  0  0  0  0  0  0  0
    0.4954   -0.0102    5.4677 C   0  0  0  0  0  0  0  0  0  0  0  0
    0.3773   -0.0100    4.4032 H   0  0  0  0  0  0  0  0  0  0  0  0
  2  3  1  0  0  0  0
  2  1  2  0  0  0  0
  4  2  1  0  0  0  0
  5  4  1  0  0  0  0
  6  4  2  0  0  0  0
  6  8  1  0  0  0  0
  7  6  1  0  0  0  0
  8 10  2  0  0  0  0
  9  8  1  0  0  0  0
 10 11  1  0  0  0  0
 10  1  1  0  0  0  0
 12 13  1  0  0  0  0
 14 12  3  0  0  0  0
 15 14  1  0  0  0  0
M  END
>  <SMILES>
n1ccccc1.C#C

>  <MoleculeName>
PyridineEthyne150

>  <Distance Scale>
1.5

>  <Energy Value>
-1.67

$$$$
/home/S66X8/3064_46PeptidePentane125.xyz
 OpenBabel06262409173D

 29 27  0  0  0  0  0  0  0  0999 V2000
    1.3722    1.0125    0.9708 C   0  0  0  0  0  0  0  0  0  0  0  0
    0.9522    2.0140    1.0331 H   0  0  0  0  0  0  0  0  0  0  0  0
    1.9474    0.9265    0.0507 H   0  0  0  0  0  0  0  0  0  0  0  0
    2.0517    0.8518    1.8030 H   0  0  0  0  0  0  0  0  0  0  0  0
    0.3267   -0.0776    0.9882 C   0  0  0  0  0  0  0  0  0  0  0  0
    0.6188   -1.2525    1.1713 O   0  0  0  0  0  0  0  0  0  0  0  0
   -0.9500    0.3449    0.7739 N   0  0  0  0  0  0  0  0  0  0  0  0
   -1.1047    1.3220    0.6061 H   0  0  0  0  0  0  0  0  0  0  0  0
   -2.0599   -0.5774    0.6802 C   0  0  0  0  0  0  0  0  0  0  0  0
   -1.6694   -1.5668    0.8972 H   0  0  0  0  0  0  0  0  0  0  0  0
   -2.8346   -0.3314    1.4037 H   0  0  0  0  0  0  0  0  0  0  0  0
   -2.4910   -0.5789   -0.3199 H   0  0  0  0  0  0  0  0  0  0  0  0
    2.7183    0.5031    5.5291 C   0  0  0  0  0  0  0  0  0  0  0  0
    2.8352    1.2575    4.7503 H   0  0  0  0  0  0  0  0  0  0  0  0
    2.6322    1.0280    6.4807 H   0  0  0  0  0  0  0  0  0  0  0  0
    3.6304   -0.0911    5.5559 H   0  0  0  0  0  0  0  0  0  0  0  0
    1.4901   -0.3603    5.2715 C   0  0  0  0  0  0  0  0  0  0  0  0
    1.3955   -1.1057    6.0646 H   0  0  0  0  0  0  0  0  0  0  0  0
    1.6065   -0.9137    4.3377 H   0  0  0  0  0  0  0  0  0  0  0  0
    0.2075    0.4583    5.2062 C   0  0  0  0  0  0  0  0  0  0  0  0
    0.0960    1.0361    6.1293 H   0  0  0  0  0  0  0  0  0  0  0  0
    0.2868    1.1912    4.3965 H   0  0  0  0  0  0  0  0  0  0  0  0
   -1.0368   -0.3920    4.9893 C   0  0  0  0  0  0  0  0  0  0  0  0
   -1.1276   -1.1065    5.8107 H   0  0  0  0  0  0  0  0  0  0  0  0
   -0.9090   -0.9809    4.0791 H   0  0  0  0  0  0  0  0  0  0  0  0
   -2.3037    0.4483    4.8992 C   0  0  0  0  0  0  0  0  0  0  0  0
   -2.2367    1.1554    4.0714 H   0  0  0  0  0  0  0  0  0  0  0  0
   -3.1890   -0.1677    4.7454 H   0  0  0  0  0  0  0  0  0  0  0  0
   -2.4540    1.0245    5.8124 H   0  0  0  0  0  0  0  0  0  0  0  0
  1  5  1  0  0  0  0
  1  2  1  0  0  0  0
  1  4  1  0  0  0  0
  3  1  1  0  0  0  0
  5  6  2  0  0  0  0
  7  5  1  0  0  0  0
  8  7  1  0  0  0  0
  9  7  1  0  0  0  0
  9 10  1  0  0  0  0
  9 11  1  0  0  0  0
 12  9  1  0  0  0  0
 13 16  1  0  0  0  0
 13 15  1  0  0  0  0
 14 13  1  0  0  0  0
 17 13  1  0  0  0  0
 17 18  1  0  0  0  0
 19 17  1  0  0  0  0
 20 17  1  0  0  0  0
 20 21  1  0  0  0  0
 22 20  1  0  0  0  0
 23 20  1  0  0  0  0
 23 24  1  0  0  0  0
 25 23  1  0  0  0  0
 26 23  1  0  0  0  0
 26 29  1  0  0  0  0
 27 26  1  0  0  0  0
 28 26  1  0  0  0  0
M  END
>  <SMILES>
CC(=O)NC.CCCCC

>  <MoleculeName>
PeptidePentane125

>  <Distance Scale>
1.25

>  <Energy Value>
-2.63

$$$$
/home/S66X8/3124_54BenzeneWaterOHpi095.xyz
 OpenBabel06262409173D

 15 14  0  0  0  0  0  0  0  0999 V2000
    0.7801   -0.6099   -1.2076 C   0  0  0  0  0  0  0  0  0  0  0  0
    0.8962   -1.1376   -2.1441 H   0  0  0  0  0  0  0  0  0  0  0  0
    0.4779    0.7510   -1.2079 C   0  0  0  0  0  0  0  0  0  0  0  0
    0.3570    1.2782   -2.1441 H   0  0  0  0  0  0  0  0  0  0  0  0
    0.3273    1.4319   -0.0000 C   0  0  0  0  0  0  0  0  0  0  0  0
    0.0915    2.4871    0.0000 H   0  0  0  0  0  0  0  0  0  0  0  0
    0.4779    0.7510    1.2079 C   0  0  0  0  0  0  0  0  0  0  0  0
    0.3570    1.2782    2.1441 H   0  0  0  0  0  0  0  0  0  0  0  0
    0.7801   -0.6099    1.2076 C   0  0  0  0  0  0  0  0  0  0  0  0
    0.8962   -1.1376    2.1441 H   0  0  0  0  0  0  0  0  0  0  0  0
    0.9316   -1.2900    0.0000 C   0  0  0  0  0  0  0  0  0  0  0  0
    1.1685   -2.3452   -0.0000 H   0  0  0  0  0  0  0  0  0  0  0  0
   -2.6441   -0.2581    0.0000 O   0  0  0  0  0  0  0  0  0  0  0  0
   -2.4793   -1.2028    0.0000 H   0  0  0  0  0  0  0  0  0  0  0  0
   -1.7568    0.1135    0.0000 H   0  0  0  0  0  0  0  0  0  0  0  0
  1 11  1  0  0  0  0
  2  1  1  0  0  0  0
  3  1  2  0  0  0  0
  3  5  1  0  0  0  0
  4  3  1  0  0  0  0
  5  6  1  0  0  0  0
  5  7  2  0  0  0  0
  7  8  1  0  0  0  0
  9  7  1  0  0  0  0
  9 10  1  0  0  0  0
 11 12  1  0  0  0  0
 11  9  2  0  0  0  0
 13 14  1  0  0  0  0
 13 15  1  0  0  0  0
M  END
>  <SMILES>
c1ccccc1.O

>  <MoleculeName>
BenzeneWaterOHpi095

>  <Distance Scale>
0.95

>  <Energy Value>
-3.21

$$$$
/home/S66X8/3021_41UracilPentane100.xyz
 OpenBabel06262409173D

 29 28  0  0  0  0  0  0  0  0999 V2000
   -0.2089   -0.9646    0.5348 N   0  0  0  0  0  0  0  0  0  0  0  0
   -0.2242   -1.9731    0.6051 H   0  0  0  0  0  0  0  0  0  0  0  0
   -1.4463   -0.3446    0.3067 C   0  0  0  0  0  0  0  0  0  0  0  0
   -2.4612   -1.0108    0.1979 O   0  0  0  0  0  0  0  0  0  0  0  0
   -1.3578    1.1032    0.2281 C   0  0  0  0  0  0  0  0  0  0  0  0
   -2.2566    1.6677    0.0498 H   0  0  0  0  0  0  0  0  0  0  0  0
   -0.1630    1.7099    0.3811 C   0  0  0  0  0  0  0  0  0  0  0  0
   -0.0463    2.7824    0.3333 H   0  0  0  0  0  0  0  0  0  0  0  0
    0.9855    1.0008    0.6112 N   0  0  0  0  0  0  0  0  0  0  0  0
    1.8676    1.4669    0.7448 H   0  0  0  0  0  0  0  0  0  0  0  0
    1.0270   -0.3792    0.7126 C   0  0  0  0  0  0  0  0  0  0  0  0
    2.0492   -0.9974    0.9373 O   0  0  0  0  0  0  0  0  0  0  0  0
    1.1440    2.3574    4.0876 C   0  0  0  0  0  0  0  0  0  0  0  0
    0.7131    2.6684    3.1348 H   0  0  0  0  0  0  0  0  0  0  0  0
    0.5097    2.7628    4.8758 H   0  0  0  0  0  0  0  0  0  0  0  0
    2.1269    2.8178    4.1807 H   0  0  0  0  0  0  0  0  0  0  0  0
    1.2170    0.8385    4.1771 C   0  0  0  0  0  0  0  0  0  0  0  0
    1.6474    0.5489    5.1384 H   0  0  0  0  0  0  0  0  0  0  0  0
    1.8916    0.4473    3.4120 H   0  0  0  0  0  0  0  0  0  0  0  0
   -0.1478    0.1803    4.0223 C   0  0  0  0  0  0  0  0  0  0  0  0
   -0.8190    0.5492    4.8039 H   0  0  0  0  0  0  0  0  0  0  0  0
   -0.5953    0.4906    3.0724 H   0  0  0  0  0  0  0  0  0  0  0  0
   -0.0915   -1.3404    4.0819 C   0  0  0  0  0  0  0  0  0  0  0  0
    0.3321   -1.6428    5.0426 H   0  0  0  0  0  0  0  0  0  0  0  0
    0.6000   -1.7022    3.3174 H   0  0  0  0  0  0  0  0  0  0  0  0
   -1.4608   -1.9822    3.8982 C   0  0  0  0  0  0  0  0  0  0  0  0
   -1.8992   -1.7088    2.9380 H   0  0  0  0  0  0  0  0  0  0  0  0
   -1.4038   -3.0690    3.9422 H   0  0  0  0  0  0  0  0  0  0  0  0
   -2.1487   -1.6539    4.6774 H   0  0  0  0  0  0  0  0  0  0  0  0
  1  2  1  0  0  0  0
  1 11  1  0  0  0  0
  3  1  1  0  0  0  0
  4  3  2  0  0  0  0
  5  3  1  0  0  0  0
  5  7  2  0  0  0  0
  6  5  1  0  0  0  0
  7  9  1  0  0  0  0
  8  7  1  0  0  0  0
  9 11  1  0  0  0  0
  9 10  1  0  0  0  0
 11 12  2  0  0  0  0
 13 17  1  0  0  0  0
 13 16  1  0  0  0  0
 13 15  1  0  0  0  0
 14 13  1  0  0  0  0
 17 18  1  0  0  0  0
 19 17  1  0  0  0  0
 20 23  1  0  0  0  0
 20 17  1  0  0  0  0
 20 21  1  0  0  0  0
 22 20  1  0  0  0  0
 23 24  1  0  0  0  0
 25 23  1  0  0  0  0
 26 28  1  0  0  0  0
 26 23  1  0  0  0  0
 26 29  1  0  0  0  0
 27 26  1  0  0  0  0
M  END
>  <SMILES>
[nH]1c(=O)cc[nH]c1=O.CCCCC

>  <MoleculeName>
UracilPentane100

>  <Distance Scale>
1.0

>  <Energy Value>
-4.84

$$$$
/home/S66X8/2750_07MeOHPeptide105.xyz
 OpenBabel06262409173D

 18 16  0  0  0  0  0  0  0  0999 V2000
   -0.2088   -0.2169   -1.0324 O   0  0  0  0  0  0  0  0  0  0  0  0
    0.7111   -0.3869   -0.7740 H   0  0  0  0  0  0  0  0  0  0  0  0
   -1.0222   -0.7412   -0.0055 C   0  0  0  0  0  0  0  0  0  0  0  0
   -2.0575   -0.5387   -0.2686 H   0  0  0  0  0  0  0  0  0  0  0  0
   -0.9077   -1.8218    0.1085 H   0  0  0  0  0  0  0  0  0  0  0  0
   -0.8246   -0.2755    0.9646 H   0  0  0  0  0  0  0  0  0  0  0  0
    2.0868    1.9042    0.4714 C   0  0  0  0  0  0  0  0  0  0  0  0
    2.5932    2.8657    0.4365 H   0  0  0  0  0  0  0  0  0  0  0  0
    1.6763    1.7581    1.4693 H   0  0  0  0  0  0  0  0  0  0  0  0
    1.2572    1.8947   -0.2301 H   0  0  0  0  0  0  0  0  0  0  0  0
    3.0025    0.7493    0.1555 C   0  0  0  0  0  0  0  0  0  0  0  0
    2.5783   -0.3706   -0.1296 O   0  0  0  0  0  0  0  0  0  0  0  0
    4.3286    1.0110    0.2147 N   0  0  0  0  0  0  0  0  0  0  0  0
    4.6266    1.9214    0.5124 H   0  0  0  0  0  0  0  0  0  0  0  0
    5.3110   -0.0291   -0.0080 C   0  0  0  0  0  0  0  0  0  0  0  0
    4.9544   -0.6801   -0.8002 H   0  0  0  0  0  0  0  0  0  0  0  0
    6.2514    0.4244   -0.3066 H   0  0  0  0  0  0  0  0  0  0  0  0
    5.4705   -0.6336    0.8840 H   0  0  0  0  0  0  0  0  0  0  0  0
  1  2  1  0  0  0  0
  1  3  1  0  0  0  0
  3  5  1  0  0  0  0
  3  6  1  0  0  0  0
  4  3  1  0  0  0  0
  7  9  1  0  0  0  0
  8  7  1  0  0  0  0
 10  7  1  0  0  0  0
 11 13  1  0  0  0  0
 11  7  1  0  0  0  0
 12 11  2  0  0  0  0
 13 14  1  0  0  0  0
 15 13  1  0  0  0  0
 15 18  1  0  0  0  0
 16 15  1  0  0  0  0
 17 15  1  0  0  0  0
M  END
>  <SMILES>
OC.CC(=O)NC

>  <MoleculeName>
MeOHPeptide105

>  <Distance Scale>
1.05

>  <Energy Value>
-8.02

$$$$
/home/S66X8/2803_14PeptideMeNH2090.xyz
 OpenBabel06262409173D

 19 17  0  0  0  0  0  0  0  0999 V2000
   -0.7786   -0.4633    2.4904 C   0  0  0  0  0  0  0  0  0  0  0  0
    0.2247   -0.0510    2.4135 H   0  0  0  0  0  0  0  0  0  0  0  0
   -0.7225   -1.4871    2.8546 H   0  0  0  0  0  0  0  0  0  0  0  0
   -1.3519    0.1108    3.2137 H   0  0  0  0  0  0  0  0  0  0  0  0
   -1.5205   -0.4566    1.1723 C   0  0  0  0  0  0  0  0  0  0  0  0
   -2.7008   -0.7836    1.0896 O   0  0  0  0  0  0  0  0  0  0  0  0
   -0.7920   -0.0696    0.1006 N   0  0  0  0  0  0  0  0  0  0  0  0
    0.1941    0.1457    0.2029 H   0  0  0  0  0  0  0  0  0  0  0  0
   -1.3978   -0.0561   -1.2113 C   0  0  0  0  0  0  0  0  0  0  0  0
   -2.3149    0.5289   -1.1997 H   0  0  0  0  0  0  0  0  0  0  0  0
   -0.6988    0.3873   -1.9154 H   0  0  0  0  0  0  0  0  0  0  0  0
   -1.6530   -1.0615   -1.5454 H   0  0  0  0  0  0  0  0  0  0  0  0
    2.0493    0.2445    0.2752 N   0  0  0  0  0  0  0  0  0  0  0  0
    2.4530    0.7844    1.0304 H   0  0  0  0  0  0  0  0  0  0  0  0
    2.4673    0.6119   -0.5705 H   0  0  0  0  0  0  0  0  0  0  0  0
    2.4216   -1.1667    0.4289 C   0  0  0  0  0  0  0  0  0  0  0  0
    1.9953   -1.7377   -0.3925 H   0  0  0  0  0  0  0  0  0  0  0  0
    3.4970   -1.3534    0.4547 H   0  0  0  0  0  0  0  0  0  0  0  0
    1.9872   -1.5511    1.3488 H   0  0  0  0  0  0  0  0  0  0  0  0
  1  3  1  0  0  0  0
  1  4  1  0  0  0  0
  2  1  1  0  0  0  0
  5  1  1  0  0  0  0
  6  5  2  0  0  0  0
  7  8  1  0  0  0  0
  7  5  1  0  0  0  0
  9 10  1  0  0  0  0
  9  7  1  0  0  0  0
 11  9  1  0  0  0  0
 12  9  1  0  0  0  0
 13 16  1  0  0  0  0
 13 14  1  0  0  0  0
 15 13  1  0  0  0  0
 16 18  1  0  0  0  0
 16 19  1  0  0  0  0
 17 16  1  0  0  0  0
M  END
>  <SMILES>
CC(=O)NC.NC

>  <MoleculeName>
PeptideMeNH2090

>  <Distance Scale>
0.9

>  <Energy Value>
-6.81

$$$$
/home/S66X8/3174_60EthyneAcOHOHpi105.xyz
 OpenBabel06262409173D

 12 10  0  0  0  0  0  0  0  0999 V2000
   -0.6106    0.2275   -0.1706 C   0  0  0  0  0  0  0  0  0  0  0  0
    0.1074    0.8614   -0.6342 H   0  0  0  0  0  0  0  0  0  0  0  0
   -1.3863   -0.5253    0.3800 C   0  0  0  0  0  0  0  0  0  0  0  0
   -2.0807   -1.1741    0.8544 H   0  0  0  0  0  0  0  0  0  0  0  0
    2.9660   -0.6999    0.5089 C   0  0  0  0  0  0  0  0  0  0  0  0
    2.7118    0.2562   -0.1899 O   0  0  0  0  0  0  0  0  0  0  0  0
    2.0180   -1.4742    1.0766 O   0  0  0  0  0  0  0  0  0  0  0  0
    1.1570   -1.1069    0.8088 H   0  0  0  0  0  0  0  0  0  0  0  0
    4.3416   -1.1813    0.8590 C   0  0  0  0  0  0  0  0  0  0  0  0
    5.0800   -0.5438    0.3882 H   0  0  0  0  0  0  0  0  0  0  0  0
    4.4678   -1.1695    1.9391 H   0  0  0  0  0  0  0  0  0  0  0  0
    4.4639   -2.2092    0.5258 H   0  0  0  0  0  0  0  0  0  0  0  0
  1  3  3  0  0  0  0
  2  1  1  0  0  0  0
  3  4  1  0  0  0  0
  5  9  1  0  0  0  0
  5  7  1  0  0  0  0
  6  5  2  0  0  0  0
  8  7  1  0  0  0  0
  9 11  1  0  0  0  0
 10  9  1  0  0  0  0
 12  9  1  0  0  0  0
M  END
>  <SMILES>
C#C.C(=O)(O)C

>  <MoleculeName>
EthyneAcOHOHpi105

>  <Distance Scale>
1.05

>  <Energy Value>
-4.69

$$$$
/home/S66X8/2975_35NeopentanePentane110.xyz
 OpenBabel06262409173D

 34 32  0  0  0  0  0  0  0  0999 V2000
   -2.5304   -0.4176    0.6813 C   0  0  0  0  0  0  0  0  0  0  0  0
   -2.5599   -0.9828   -0.2502 H   0  0  0  0  0  0  0  0  0  0  0  0
   -2.5540   -1.1339    1.5027 H   0  0  0  0  0  0  0  0  0  0  0  0
   -3.4362    0.1841    0.7368 H   0  0  0  0  0  0  0  0  0  0  0  0
   -1.2762    0.4436    0.7500 C   0  0  0  0  0  0  0  0  0  0  0  0
   -1.2781    1.0252    1.6751 H   0  0  0  0  0  0  0  0  0  0  0  0
   -1.2803    1.1686   -0.0672 H   0  0  0  0  0  0  0  0  0  0  0  0
    0.0022   -0.3807    0.6790 C   0  0  0  0  0  0  0  0  0  0  0  0
    0.0078   -1.1114    1.4938 H   0  0  0  0  0  0  0  0  0  0  0  0
    0.0062   -0.9605   -0.2488 H   0  0  0  0  0  0  0  0  0  0  0  0
    1.2683    0.4624    0.7494 C   0  0  0  0  0  0  0  0  0  0  0  0
    1.2620    1.0443    1.6742 H   0  0  0  0  0  0  0  0  0  0  0  0
    1.2616    1.1871   -0.0680 H   0  0  0  0  0  0  0  0  0  0  0  0
    2.5350   -0.3804    0.6807 C   0  0  0  0  0  0  0  0  0  0  0  0
    2.5724   -0.9457   -0.2505 H   0  0  0  0  0  0  0  0  0  0  0  0
    3.4320    0.2344    0.7356 H   0  0  0  0  0  0  0  0  0  0  0  0
    2.5692   -1.0958    1.5025 H   0  0  0  0  0  0  0  0  0  0  0  0
   -0.0006    0.0736    5.5812 C   0  0  0  0  0  0  0  0  0  0  0  0
    0.0005   -0.0665    7.1009 C   0  0  0  0  0  0  0  0  0  0  0  0
   -0.8865    0.3976    7.5343 H   0  0  0  0  0  0  0  0  0  0  0  0
    0.0098   -1.1173    7.3939 H   0  0  0  0  0  0  0  0  0  0  0  0
    0.8792    0.4132    7.5345 H   0  0  0  0  0  0  0  0  0  0  0  0
   -1.2400   -0.6080    5.0073 C   0  0  0  0  0  0  0  0  0  0  0  0
   -1.2633   -0.5191    3.9204 H   0  0  0  0  0  0  0  0  0  0  0  0
   -1.2521   -1.6693    5.2603 H   0  0  0  0  0  0  0  0  0  0  0  0
   -2.1509   -0.1557    5.4024 H   0  0  0  0  0  0  0  0  0  0  0  0
    1.2521   -0.5839    5.0077 C   0  0  0  0  0  0  0  0  0  0  0  0
    1.2734   -0.4956    3.9207 H   0  0  0  0  0  0  0  0  0  0  0  0
    1.2852   -1.6445    5.2618 H   0  0  0  0  0  0  0  0  0  0  0  0
    2.1539   -0.1133    5.4021 H   0  0  0  0  0  0  0  0  0  0  0  0
   -0.0148    1.5534    5.2065 C   0  0  0  0  0  0  0  0  0  0  0  0
    0.8630    2.0640    5.6055 H   0  0  0  0  0  0  0  0  0  0  0  0
   -0.0153    1.6799    4.1229 H   0  0  0  0  0  0  0  0  0  0  0  0
   -0.9029    2.0468    5.6043 H   0  0  0  0  0  0  0  0  0  0  0  0
  1  4  1  0  0  0  0
  1  5  1  0  0  0  0
  1  3  1  0  0  0  0
  2  1  1  0  0  0  0
  5  6  1  0  0  0  0
  7  5  1  0  0  0  0
  8 11  1  0  0  0  0
  8  5  1  0  0  0  0
  8  9  1  0  0  0  0
 10  8  1  0  0  0  0
 11 12  1  0  0  0  0
 13 11  1  0  0  0  0
 14 16  1  0  0  0  0
 14 11  1  0  0  0  0
 14 17  1  0  0  0  0
 15 14  1  0  0  0  0
 18 19  1  0  0  0  0
 19 21  1  0  0  0  0
 19 20  1  0  0  0  0
 19 22  1  0  0  0  0
 23 25  1  0  0  0  0
 23 26  1  0  0  0  0
 23 18  1  0  0  0  0
 24 23  1  0  0  0  0
 27 29  1  0  0  0  0
 27 30  1  0  0  0  0
 27 18  1  0  0  0  0
 28 27  1  0  0  0  0
 31 18  1  0  0  0  0
 31 34  1  0  0  0  0
 31 32  1  0  0  0  0
 33 31  1  0  0  0  0
M  END
>  <SMILES>
CCCCC.C(C)(C)(C)C

>  <MoleculeName>
NeopentanePentane110

>  <Distance Scale>
1.1

>  <Energy Value>
-2.25

$$$$
/home/S66X8/2764_09MeNH2MeOH095.xyz
 OpenBabel06262409173D

 13 11  0  0  0  0  0  0  0  0999 V2000
   -0.8935   -0.0438   -0.0430 N   0  0  0  0  0  0  0  0  0  0  0  0
    0.0969   -0.2561   -0.0711 H   0  0  0  0  0  0  0  0  0  0  0  0
   -1.3684   -0.9334    0.0338 H   0  0  0  0  0  0  0  0  0  0  0  0
   -1.1758    0.7579    1.1452 C   0  0  0  0  0  0  0  0  0  0  0  0
   -2.2416    0.9722    1.1950 H   0  0  0  0  0  0  0  0  0  0  0  0
   -0.8808    0.3042    2.0972 H   0  0  0  0  0  0  0  0  0  0  0  0
   -0.6630    1.7143    1.0608 H   0  0  0  0  0  0  0  0  0  0  0  0
    2.2346   -0.0522    0.0256 O   0  0  0  0  0  0  0  0  0  0  0  0
    2.5167    0.3177   -0.8143 H   0  0  0  0  0  0  0  0  0  0  0  0
    2.6205    0.8594    1.0450 C   0  0  0  0  0  0  0  0  0  0  0  0
    2.2974    0.4297    1.9881 H   0  0  0  0  0  0  0  0  0  0  0  0
    3.7016    0.9984    1.0840 H   0  0  0  0  0  0  0  0  0  0  0  0
    2.1421    1.8330    0.9298 H   0  0  0  0  0  0  0  0  0  0  0  0
  1  3  1  0  0  0  0
  1  4  1  0  0  0  0
  2  1  1  0  0  0  0
  4  5  1  0  0  0  0
  4  6  1  0  0  0  0
  7  4  1  0  0  0  0
  8 10  1  0  0  0  0
  9  8  1  0  0  0  0
 10 12  1  0  0  0  0
 10 11  1  0  0  0  0
 13 10  1  0  0  0  0
M  END
>  <SMILES>
NC.OC

>  <MoleculeName>
MeNH2MeOH095

>  <Distance Scale>
0.95

>  <Energy Value>
-3.04

$$$$
/home/S66X8/3201_63BenzeneAcOH150.xyz
 OpenBabel06262409173D

 20 19  0  0  0  0  0  0  0  0999 V2000
    0.6068    1.3304    0.3164 C   0  0  0  0  0  0  0  0  0  0  0  0
    1.2465    2.2023    0.3304 H   0  0  0  0  0  0  0  0  0  0  0  0
    1.1181    0.0872    0.6851 C   0  0  0  0  0  0  0  0  0  0  0  0
    2.1501   -0.0039    0.9938 H   0  0  0  0  0  0  0  0  0  0  0  0
    0.2929   -1.0361    0.6691 C   0  0  0  0  0  0  0  0  0  0  0  0
    0.6885   -2.0010    0.9554 H   0  0  0  0  0  0  0  0  0  0  0  0
   -1.0428   -0.9167    0.2882 C   0  0  0  0  0  0  0  0  0  0  0  0
   -1.6827   -1.7885    0.2793 H   0  0  0  0  0  0  0  0  0  0  0  0
   -1.5536    0.3273   -0.0799 C   0  0  0  0  0  0  0  0  0  0  0  0
   -2.5892    0.4203   -0.3773 H   0  0  0  0  0  0  0  0  0  0  0  0
   -0.7280    1.4508   -0.0668 C   0  0  0  0  0  0  0  0  0  0  0  0
   -1.1236    2.4157   -0.3539 H   0  0  0  0  0  0  0  0  0  0  0  0
    0.2492   -0.0226    5.5249 C   0  0  0  0  0  0  0  0  0  0  0  0
    1.4447    0.1414    5.6015 O   0  0  0  0  0  0  0  0  0  0  0  0
   -0.3303   -1.2340    5.7244 O   0  0  0  0  0  0  0  0  0  0  0  0
    0.4042   -1.8351    5.9174 H   0  0  0  0  0  0  0  0  0  0  0  0
   -0.7727    1.0214    5.2043 C   0  0  0  0  0  0  0  0  0  0  0  0
   -0.2944    1.9923    5.1574 H   0  0  0  0  0  0  0  0  0  0  0  0
   -1.2255    0.7882    4.2416 H   0  0  0  0  0  0  0  0  0  0  0  0
   -1.5575    1.0158    5.9568 H   0  0  0  0  0  0  0  0  0  0  0  0
  1  2  1  0  0  0  0
  1  3  1  0  0  0  0
  3  4  1  0  0  0  0
  5  3  2  0  0  0  0
  5  6  1  0  0  0  0
  7  5  1  0  0  0  0
  8  7  1  0  0  0  0
  9 11  1  0  0  0  0
  9  7  2  0  0  0  0
 10  9  1  0  0  0  0
 11  1  2  0  0  0  0
 12 11  1  0  0  0  0
 13 14  2  0  0  0  0
 13 15  1  0  0  0  0
 15 16  1  0  0  0  0
 17 13  1  0  0  0  0
 17 20  1  0  0  0  0
 18 17  1  0  0  0  0
 19 17  1  0  0  0  0
M  END
>  <SMILES>
c1ccccc1.C(=O)(O)C

>  <MoleculeName>
BenzeneAcOH150

>  <Distance Scale>
1.5

>  <Energy Value>
-1.02

$$$$
/home/S66X8/2861_21AcNH2AcNH2100.xyz
 OpenBabel06262409173D

 18 16  0  0  0  0  0  0  0  0999 V2000
   -1.3097    1.1802   -0.0252 C   0  0  0  0  0  0  0  0  0  0  0  0
   -0.7253    2.1551    0.4527 O   0  0  0  0  0  0  0  0  0  0  0  0
   -0.6656    0.0951   -0.4920 N   0  0  0  0  0  0  0  0  0  0  0  0
    0.3546    0.0514   -0.4593 H   0  0  0  0  0  0  0  0  0  0  0  0
   -1.1836   -0.6736   -0.8708 H   0  0  0  0  0  0  0  0  0  0  0  0
   -2.8167    1.1560   -0.1106 C   0  0  0  0  0  0  0  0  0  0  0  0
   -3.2206    1.2625    0.8931 H   0  0  0  0  0  0  0  0  0  0  0  0
   -3.2094    0.2486   -0.5619 H   0  0  0  0  0  0  0  0  0  0  0  0
   -3.1432    2.0166   -0.6889 H   0  0  0  0  0  0  0  0  0  0  0  0
    2.7939    1.0642    0.1352 C   0  0  0  0  0  0  0  0  0  0  0  0
    2.2095    0.0902   -0.3445 O   0  0  0  0  0  0  0  0  0  0  0  0
    2.1498    2.1489    0.6031 N   0  0  0  0  0  0  0  0  0  0  0  0
    1.1297    2.1934    0.5688 H   0  0  0  0  0  0  0  0  0  0  0  0
    2.6678    2.9169    0.9832 H   0  0  0  0  0  0  0  0  0  0  0  0
    4.3009    1.0885    0.2205 C   0  0  0  0  0  0  0  0  0  0  0  0
    4.6928    1.9881    0.6877 H   0  0  0  0  0  0  0  0  0  0  0  0
    4.7044    1.0009   -0.7853 H   0  0  0  0  0  0  0  0  0  0  0  0
    4.6287    0.2179    0.7827 H   0  0  0  0  0  0  0  0  0  0  0  0
  1  2  2  0  0  0  0
  3  4  1  0  0  0  0
  3  1  1  0  0  0  0
  5  3  1  0  0  0  0
  6  1  1  0  0  0  0
  6  7  1  0  0  0  0
  8  6  1  0  0  0  0
  9  6  1  0  0  0  0
 10 15  1  0  0  0  0
 10 12  1  0  0  0  0
 11 10  2  0  0  0  0
 12 14  1  0  0  0  0
 13 12  1  0  0  0  0
 15 16  1  0  0  0  0
 15 18  1  0  0  0  0
 17 15  1  0  0  0  0
M  END
>  <SMILES>
C(=O)(N)C.C(=O)(N)C

>  <MoleculeName>
AcNH2AcNH2100

>  <Distance Scale>
1.0

>  <Energy Value>
-16.26

$$$$
/home/S66X8/3141_56BenzeneMeNH2NHpi100.xyz
 OpenBabel06262409173D

 19 18  0  0  0  0  0  0  0  0999 V2000
    0.6923    1.0883    0.3248 C   0  0  0  0  0  0  0  0  0  0  0  0
    1.2819    1.9919    0.2525 H   0  0  0  0  0  0  0  0  0  0  0  0
    1.3182   -0.1569    0.2869 C   0  0  0  0  0  0  0  0  0  0  0  0
    2.3931   -0.2195    0.1884 H   0  0  0  0  0  0  0  0  0  0  0  0
    0.5580   -1.3220    0.3814 C   0  0  0  0  0  0  0  0  0  0  0  0
    1.0439   -2.2876    0.3576 H   0  0  0  0  0  0  0  0  0  0  0  0
   -0.8276   -1.2414    0.5117 C   0  0  0  0  0  0  0  0  0  0  0  0
   -1.4167   -2.1453    0.5853 H   0  0  0  0  0  0  0  0  0  0  0  0
   -1.4534    0.0037    0.5484 C   0  0  0  0  0  0  0  0  0  0  0  0
   -2.5282    0.0657    0.6498 H   0  0  0  0  0  0  0  0  0  0  0  0
   -0.6935    1.1684    0.4562 C   0  0  0  0  0  0  0  0  0  0  0  0
   -1.1787    2.1344    0.4857 H   0  0  0  0  0  0  0  0  0  0  0  0
    0.2746   -0.2231    3.8632 N   0  0  0  0  0  0  0  0  0  0  0  0
    0.4093   -0.1791    2.8601 H   0  0  0  0  0  0  0  0  0  0  0  0
    0.4161    0.7220    4.1957 H   0  0  0  0  0  0  0  0  0  0  0  0
   -1.1015   -0.6295    4.1406 C   0  0  0  0  0  0  0  0  0  0  0  0
   -1.2593   -0.6580    5.2172 H   0  0  0  0  0  0  0  0  0  0  0  0
   -1.8728    0.0109    3.7005 H   0  0  0  0  0  0  0  0  0  0  0  0
   -1.2561   -1.6391    3.7650 H   0  0  0  0  0  0  0  0  0  0  0  0
  1 11  1  0  0  0  0
  2  1  1  0  0  0  0
  3  1  2  0  0  0  0
  3  5  1  0  0  0  0
  4  3  1  0  0  0  0
  5  7  2  0  0  0  0
  6  5  1  0  0  0  0
  7  9  1  0  0  0  0
  7  8  1  0  0  0  0
  9 10  1  0  0  0  0
 11 12  1  0  0  0  0
 11  9  2  0  0  0  0
 13 16  1  0  0  0  0
 13 15  1  0  0  0  0
 14 13  1  0  0  0  0
 16 17  1  0  0  0  0
 18 16  1  0  0  0  0
 19 16  1  0  0  0  0
M  END
>  <SMILES>
c1ccccc1.NC

>  <MoleculeName>
BenzeneMeNH2NHpi100

>  <Distance Scale>
1.0

>  <Energy Value>
-3.23

$$$$
/home/S66X8/3223_66MeNH2Pyridine110.xyz
 OpenBabel06262409173D

 18 17  0  0  0  0  0  0  0  0999 V2000
   -0.5411    0.0296   -0.2090 N   0  0  0  0  0  0  0  0  0  0  0  0
    0.0556   -0.7861   -0.1303 H   0  0  0  0  0  0  0  0  0  0  0  0
   -1.4697   -0.2747    0.0531 H   0  0  0  0  0  0  0  0  0  0  0  0
   -0.0788    1.0424    0.7385 C   0  0  0  0  0  0  0  0  0  0  0  0
   -0.7202    1.9194    0.6720 H   0  0  0  0  0  0  0  0  0  0  0  0
   -0.0508    0.7238    1.7855 H   0  0  0  0  0  0  0  0  0  0  0  0
    0.9264    1.3566    0.4620 H   0  0  0  0  0  0  0  0  0  0  0  0
    2.5890   -1.3077    0.0475 N   0  0  0  0  0  0  0  0  0  0  0  0
    2.9275   -0.4953   -0.9642 C   0  0  0  0  0  0  0  0  0  0  0  0
    2.3848   -0.6399   -1.8896 H   0  0  0  0  0  0  0  0  0  0  0  0
    3.8988    0.4968   -0.8638 C   0  0  0  0  0  0  0  0  0  0  0  0
    4.1237    1.1211   -1.7167 H   0  0  0  0  0  0  0  0  0  0  0  0
    4.5597    0.6663    0.3484 C   0  0  0  0  0  0  0  0  0  0  0  0
    5.3175    1.4286    0.4648 H   0  0  0  0  0  0  0  0  0  0  0  0
    4.2195   -0.1686    1.4075 C   0  0  0  0  0  0  0  0  0  0  0  0
    4.7021   -0.0782    2.3702 H   0  0  0  0  0  0  0  0  0  0  0  0
    3.2357   -1.1334    1.2084 C   0  0  0  0  0  0  0  0  0  0  0  0
    2.9497   -1.7972    2.0150 H   0  0  0  0  0  0  0  0  0  0  0  0
  1  2  1  0  0  0  0
  1  3  1  0  0  0  0
  1  4  1  0  0  0  0
  4  6  1  0  0  0  0
  5  4  1  0  0  0  0
  7  4  1  0  0  0  0
  8 17  1  0  0  0  0
  9 11  1  0  0  0  0
  9  8  2  0  0  0  0
 10  9  1  0  0  0  0
 11 13  2  0  0  0  0
 12 11  1  0  0  0  0
 13 14  1  0  0  0  0
 13 15  1  0  0  0  0
 15 16  1  0  0  0  0
 17 15  2  0  0  0  0
 17 18  1  0  0  0  0
M  END
>  <SMILES>
NC.n1ccccc1

>  <MoleculeName>
MeNH2Pyridine110

>  <Distance Scale>
1.1

>  <Energy Value>
-3.62

$$$$
/home/S66X8/3037_43UracilNeopentane100.xyz
 OpenBabel06262409173D

 29 28  0  0  0  0  0  0  0  0999 V2000
    0.6261   -0.8509    0.8059 N   0  0  0  0  0  0  0  0  0  0  0  0
    0.4092   -1.8115    1.0344 H   0  0  0  0  0  0  0  0  0  0  0  0
   -0.4325   -0.0873    0.2947 C   0  0  0  0  0  0  0  0  0  0  0  0
   -1.5308   -0.5884    0.1236 O   0  0  0  0  0  0  0  0  0  0  0  0
   -0.0669    1.2913    0.0196 C   0  0  0  0  0  0  0  0  0  0  0  0
   -0.8097    1.9518   -0.3928 H   0  0  0  0  0  0  0  0  0  0  0  0
    1.1835    1.7179    0.2905 C   0  0  0  0  0  0  0  0  0  0  0  0
    1.5019    2.7339    0.1098 H   0  0  0  0  0  0  0  0  0  0  0  0
    2.1341    0.8866    0.8191 N   0  0  0  0  0  0  0  0  0  0  0  0
    3.0553    1.2239    1.0434 H   0  0  0  0  0  0  0  0  0  0  0  0
    1.9028   -0.4432    1.1283 C   0  0  0  0  0  0  0  0  0  0  0  0
    2.7438   -1.1639    1.6286 O   0  0  0  0  0  0  0  0  0  0  0  0
   -0.6386   -0.0306    4.7736 C   0  0  0  0  0  0  0  0  0  0  0  0
   -1.9553    0.7107    4.9885 C   0  0  0  0  0  0  0  0  0  0  0  0
   -2.6624    0.0925    5.5433 H   0  0  0  0  0  0  0  0  0  0  0  0
   -1.7958    1.6309    5.5526 H   0  0  0  0  0  0  0  0  0  0  0  0
   -2.4130    0.9722    4.0333 H   0  0  0  0  0  0  0  0  0  0  0  0
   -0.0232   -0.3840    6.1249 C   0  0  0  0  0  0  0  0  0  0  0  0
    0.9200   -0.9164    5.9941 H   0  0  0  0  0  0  0  0  0  0  0  0
    0.1739    0.5157    6.7097 H   0  0  0  0  0  0  0  0  0  0  0  0
   -0.6944   -1.0218    6.7016 H   0  0  0  0  0  0  0  0  0  0  0  0
    0.3265    0.8629    3.9978 C   0  0  0  0  0  0  0  0  0  0  0  0
    1.2751    0.3503    3.8274 H   0  0  0  0  0  0  0  0  0  0  0  0
    0.5318    1.7810    4.5512 H   0  0  0  0  0  0  0  0  0  0  0  0
   -0.0959    1.1414    3.0303 H   0  0  0  0  0  0  0  0  0  0  0  0
   -0.8999   -1.3106    3.9832 C   0  0  0  0  0  0  0  0  0  0  0  0
   -1.3636   -1.0888    3.0206 H   0  0  0  0  0  0  0  0  0  0  0  0
    0.0327   -1.8490    3.8036 H   0  0  0  0  0  0  0  0  0  0  0  0
   -1.5704   -1.9724    4.5334 H   0  0  0  0  0  0  0  0  0  0  0  0
  1  2  1  0  0  0  0
  1 11  1  0  0  0  0
  3  1  1  0  0  0  0
  4  3  2  0  0  0  0
  5  7  2  0  0  0  0
  5  3  1  0  0  0  0
  6  5  1  0  0  0  0
  7  9  1  0  0  0  0
  8  7  1  0  0  0  0
  9 10  1  0  0  0  0
  9 11  1  0  0  0  0
 11 12  2  0  0  0  0
 13 14  1  0  0  0  0
 13 18  1  0  0  0  0
 14 15  1  0  0  0  0
 14 16  1  0  0  0  0
 17 14  1  0  0  0  0
 18 21  1  0  0  0  0
 18 20  1  0  0  0  0
 19 18  1  0  0  0  0
 22 24  1  0  0  0  0
 22 13  1  0  0  0  0
 23 22  1  0  0  0  0
 25 22  1  0  0  0  0
 26 29  1  0  0  0  0
 26 13  1  0  0  0  0
 27 26  1  0  0  0  0
 28 26  1  0  0  0  0
M  END
>  <SMILES>
[nH]1c(=O)cc[nH]c1=O.C(C)(C)(C)C

>  <MoleculeName>
UracilNeopentane100

>  <Distance Scale>
1.0

>  <Energy Value>
-3.7

$$$$
/home/S66X8/3005_39BenzeneCyclopentane100.xyz
 OpenBabel06262409173D

 27 27  0  0  0  0  0  0  0  0999 V2000
    0.7655    0.8682    0.8210 C   0  0  0  0  0  0  0  0  0  0  0  0
    1.4375    1.6800    1.0651 H   0  0  0  0  0  0  0  0  0  0  0  0
    1.2377   -0.4428    0.7939 C   0  0  0  0  0  0  0  0  0  0  0  0
    2.2758   -0.6485    1.0177 H   0  0  0  0  0  0  0  0  0  0  0  0
    0.3722   -1.4885    0.4773 C   0  0  0  0  0  0  0  0  0  0  0  0
    0.7382   -2.5061    0.4571 H   0  0  0  0  0  0  0  0  0  0  0  0
   -0.9649   -1.2230    0.1869 C   0  0  0  0  0  0  0  0  0  0  0  0
   -1.6365   -2.0346   -0.0578 H   0  0  0  0  0  0  0  0  0  0  0  0
   -1.4371    0.0884    0.2133 C   0  0  0  0  0  0  0  0  0  0  0  0
   -2.4747    0.2943   -0.0115 H   0  0  0  0  0  0  0  0  0  0  0  0
   -0.5719    1.1340    0.5308 C   0  0  0  0  0  0  0  0  0  0  0  0
   -0.9377    2.1517    0.5511 H   0  0  0  0  0  0  0  0  0  0  0  0
   -0.7648   -0.7291    4.0307 C   0  0  0  0  0  0  0  0  0  0  0  0
   -0.8710   -0.5542    2.9584 H   0  0  0  0  0  0  0  0  0  0  0  0
   -1.4164   -1.5584    4.3038 H   0  0  0  0  0  0  0  0  0  0  0  0
    0.7048   -0.9862    4.3748 C   0  0  0  0  0  0  0  0  0  0  0  0
    1.2000   -1.6238    3.6442 H   0  0  0  0  0  0  0  0  0  0  0  0
    0.7680   -1.4864    5.3423 H   0  0  0  0  0  0  0  0  0  0  0  0
    1.3449    0.4192    4.4658 C   0  0  0  0  0  0  0  0  0  0  0  0
    1.9952    0.6119    3.6139 H   0  0  0  0  0  0  0  0  0  0  0  0
    1.9578    0.5084    5.3615 H   0  0  0  0  0  0  0  0  0  0  0  0
    0.1659    1.4184    4.4926 C   0  0  0  0  0  0  0  0  0  0  0  0
    0.0487    1.8774    3.5103 H   0  0  0  0  0  0  0  0  0  0  0  0
    0.3115    2.2199    5.2150 H   0  0  0  0  0  0  0  0  0  0  0  0
   -1.0679    0.5613    4.7883 C   0  0  0  0  0  0  0  0  0  0  0  0
   -1.9989    1.0370    4.4824 H   0  0  0  0  0  0  0  0  0  0  0  0
   -1.1333    0.3520    5.8588 H   0  0  0  0  0  0  0  0  0  0  0  0
  1  2  1  0  0  0  0
  3  1  1  0  0  0  0
  3  4  1  0  0  0  0
  5  3  2  0  0  0  0
  6  5  1  0  0  0  0
  7  9  2  0  0  0  0
  7  5  1  0  0  0  0
  8  7  1  0  0  0  0
  9 11  1  0  0  0  0
 10  9  1  0  0  0  0
 11 12  1  0  0  0  0
 11  1  2  0  0  0  0
 13 15  1  0  0  0  0
 13 16  1  0  0  0  0
 13 25  1  0  0  0  0
 14 13  1  0  0  0  0
 16 19  1  0  0  0  0
 16 18  1  0  0  0  0
 17 16  1  0  0  0  0
 19 22  1  0  0  0  0
 19 21  1  0  0  0  0
 20 19  1  0  0  0  0
 22 25  1  0  0  0  0
 22 24  1  0  0  0  0
 23 22  1  0  0  0  0
 25 27  1  0  0  0  0
 26 25  1  0  0  0  0
M  END
>  <SMILES>
c1ccccc1.C1CCCC1

>  <MoleculeName>
BenzeneCyclopentane100

>  <Distance Scale>
1.0

>  <Energy Value>
-3.57

$$$$
/home/S66X8/3033_42UracilCyclopentane150.xyz
 OpenBabel06262409173D

 27 27  0  0  0  0  0  0  0  0999 V2000
    0.1957   -0.8447    0.8238 N   0  0  0  0  0  0  0  0  0  0  0  0
    0.4504   -1.7968    1.0498 H   0  0  0  0  0  0  0  0  0  0  0  0
   -1.1790   -0.5737    0.7595 C   0  0  0  0  0  0  0  0  0  0  0  0
   -1.9936   -1.4563    0.9669 O   0  0  0  0  0  0  0  0  0  0  0  0
   -1.4767    0.8112    0.4376 C   0  0  0  0  0  0  0  0  0  0  0  0
   -2.5064    1.1157    0.3639 H   0  0  0  0  0  0  0  0  0  0  0  0
   -0.4681    1.6830    0.2349 C   0  0  0  0  0  0  0  0  0  0  0  0
   -0.6384    2.7216   -0.0062 H   0  0  0  0  0  0  0  0  0  0  0  0
    0.8456    1.3060    0.3268 N   0  0  0  0  0  0  0  0  0  0  0  0
    1.5897    1.9689    0.1860 H   0  0  0  0  0  0  0  0  0  0  0  0
    1.2543    0.0195    0.6362 C   0  0  0  0  0  0  0  0  0  0  0  0
    2.4223   -0.3017    0.7319 O   0  0  0  0  0  0  0  0  0  0  0  0
    1.1027   -0.8885    5.8895 C   0  0  0  0  0  0  0  0  0  0  0  0
    1.5565   -0.9806    4.9015 H   0  0  0  0  0  0  0  0  0  0  0  0
    1.6472   -1.5525    6.5587 H   0  0  0  0  0  0  0  0  0  0  0  0
    1.1570    0.5774    6.3224 C   0  0  0  0  0  0  0  0  0  0  0  0
    2.1153    1.0503    6.1117 H   0  0  0  0  0  0  0  0  0  0  0  0
    0.9689    0.6590    7.3956 H   0  0  0  0  0  0  0  0  0  0  0  0
   -0.0104    1.1902    5.5516 C   0  0  0  0  0  0  0  0  0  0  0  0
    0.2639    1.2790    4.4982 H   0  0  0  0  0  0  0  0  0  0  0  0
   -0.2948    2.1814    5.9033 H   0  0  0  0  0  0  0  0  0  0  0  0
   -1.1273    0.1527    5.7227 C   0  0  0  0  0  0  0  0  0  0  0  0
   -1.8529    0.1763    4.9113 H   0  0  0  0  0  0  0  0  0  0  0  0
   -1.6714    0.3573    6.6449 H   0  0  0  0  0  0  0  0  0  0  0  0
   -0.4043   -1.2139    5.8263 C   0  0  0  0  0  0  0  0  0  0  0  0
   -0.6469   -1.8581    4.9830 H   0  0  0  0  0  0  0  0  0  0  0  0
   -0.7194   -1.7413    6.7254 H   0  0  0  0  0  0  0  0  0  0  0  0
  1  2  1  0  0  0  0
  3  1  1  0  0  0  0
  3  4  2  0  0  0  0
  5  3  1  0  0  0  0
  6  5  1  0  0  0  0
  7  9  1  0  0  0  0
  7  5  2  0  0  0  0
  8  7  1  0  0  0  0
  9 11  1  0  0  0  0
 10  9  1  0  0  0  0
 11 12  2  0  0  0  0
 11  1  1  0  0  0  0
 13 16  1  0  0  0  0
 13 15  1  0  0  0  0
 14 13  1  0  0  0  0
 16 18  1  0  0  0  0
 17 16  1  0  0  0  0
 19 22  1  0  0  0  0
 19 21  1  0  0  0  0
 19 16  1  0  0  0  0
 20 19  1  0  0  0  0
 22 25  1  0  0  0  0
 22 24  1  0  0  0  0
 23 22  1  0  0  0  0
 25 13  1  0  0  0  0
 25 27  1  0  0  0  0
 26 25  1  0  0  0  0
M  END
>  <SMILES>
[nH]1c(=O)cc[nH]c1=O.C1CCCC1

>  <MoleculeName>
UracilCyclopentane150

>  <Distance Scale>
1.5

>  <Energy Value>
-1.02

$$$$
/home/S66X8/2946_31UracilEthene200.xyz
 OpenBabel06262409173D

 18 17  0  0  0  0  0  0  0  0999 V2000
   -0.0509   -0.9801    0.0340 N   0  0  0  0  0  0  0  0  0  0  0  0
   -0.0532   -1.9907    0.0498 H   0  0  0  0  0  0  0  0  0  0  0  0
   -1.3088   -0.3619    0.0040 C   0  0  0  0  0  0  0  0  0  0  0  0
   -2.3272   -1.0326   -0.0058 O   0  0  0  0  0  0  0  0  0  0  0  0
   -1.2368    1.0880   -0.0122 C   0  0  0  0  0  0  0  0  0  0  0  0
   -2.1527    1.6515   -0.0548 H   0  0  0  0  0  0  0  0  0  0  0  0
   -0.0352    1.6978    0.0337 C   0  0  0  0  0  0  0  0  0  0  0  0
    0.0704    2.7725    0.0319 H   0  0  0  0  0  0  0  0  0  0  0  0
    1.1345    0.9903    0.0918 N   0  0  0  0  0  0  0  0  0  0  0  0
    2.0237    1.4568    0.1557 H   0  0  0  0  0  0  0  0  0  0  0  0
    1.1932   -0.3918    0.1158 C   0  0  0  0  0  0  0  0  0  0  0  0
    2.2364   -1.0112    0.1942 O   0  0  0  0  0  0  0  0  0  0  0  0
    0.8067    0.1278    6.4100 C   0  0  0  0  0  0  0  0  0  0  0  0
    1.3238   -0.7432    6.0328 H   0  0  0  0  0  0  0  0  0  0  0  0
    1.4123    0.9148    6.8373 H   0  0  0  0  0  0  0  0  0  0  0  0
   -0.5221    0.2284    6.3608 C   0  0  0  0  0  0  0  0  0  0  0  0
   -1.1341   -0.5591    5.9439 H   0  0  0  0  0  0  0  0  0  0  0  0
   -1.0339    1.0994    6.7448 H   0  0  0  0  0  0  0  0  0  0  0  0
  1  2  1  0  0  0  0
  1 11  1  0  0  0  0
  3  1  1  0  0  0  0
  4  3  2  0  0  0  0
  5  3  1  0  0  0  0
  5  7  2  0  0  0  0
  6  5  1  0  0  0  0
  7  9  1  0  0  0  0
  8  7  1  0  0  0  0
  9 11  1  0  0  0  0
  9 10  1  0  0  0  0
 11 12  2  0  0  0  0
 13 15  1  0  0  0  0
 14 13  1  0  0  0  0
 16 13  2  0  0  0  0
 16 18  1  0  0  0  0
 17 16  1  0  0  0  0
M  END
>  <SMILES>
[nH]1c(=O)cc[nH]c1=O.C=C

>  <MoleculeName>
UracilEthene200

>  <Distance Scale>
2.0

>  <Energy Value>
-0.25

$$$$
/home/S66X8/2778_10MeNH2MeNH2200.xyz
 OpenBabel06262409173D

 14 12  0  0  0  0  0  0  0  0999 V2000
   -0.6386    0.4709    0.0446 N   0  0  0  0  0  0  0  0  0  0  0  0
    0.1900   -0.1139   -0.0058 H   0  0  0  0  0  0  0  0  0  0  0  0
   -1.3005    0.0813   -0.6137 H   0  0  0  0  0  0  0  0  0  0  0  0
   -1.1987    0.3914    1.3919 C   0  0  0  0  0  0  0  0  0  0  0  0
   -2.0927    1.0092    1.4532 H   0  0  0  0  0  0  0  0  0  0  0  0
   -1.4627   -0.6158    1.7295 H   0  0  0  0  0  0  0  0  0  0  0  0
   -0.4803    0.7987    2.1011 H   0  0  0  0  0  0  0  0  0  0  0  0
    4.9903   -0.8562    0.4350 N   0  0  0  0  0  0  0  0  0  0  0  0
    5.2865   -0.5817   -0.4930 H   0  0  0  0  0  0  0  0  0  0  0  0
    5.6138   -1.6039    0.7102 H   0  0  0  0  0  0  0  0  0  0  0  0
    5.1505    0.2790    1.3487 C   0  0  0  0  0  0  0  0  0  0  0  0
    4.8803   -0.0357    2.3543 H   0  0  0  0  0  0  0  0  0  0  0  0
    6.1579    0.7007    1.3856 H   0  0  0  0  0  0  0  0  0  0  0  0
    4.4580    1.0647    1.0560 H   0  0  0  0  0  0  0  0  0  0  0  0
  1  4  1  0  0  0  0
  2  1  1  0  0  0  0
  3  1  1  0  0  0  0
  4  5  1  0  0  0  0
  4  6  1  0  0  0  0
  4  7  1  0  0  0  0
  8 10  1  0  0  0  0
  8 11  1  0  0  0  0
  9  8  1  0  0  0  0
 11 13  1  0  0  0  0
 11 12  1  0  0  0  0
 14 11  1  0  0  0  0
M  END
>  <SMILES>
NC.NC

>  <MoleculeName>
MeNH2MeNH2200

>  <Distance Scale>
2.0

>  <Energy Value>
-0.39

$$$$
/home/S66X8/2754_07MeOHPeptide200.xyz
 OpenBabel06262409173D

 18 16  0  0  0  0  0  0  0  0999 V2000
   -0.2088   -0.2169   -1.0324 O   0  0  0  0  0  0  0  0  0  0  0  0
    0.7111   -0.3869   -0.7740 H   0  0  0  0  0  0  0  0  0  0  0  0
   -1.0222   -0.7412   -0.0055 C   0  0  0  0  0  0  0  0  0  0  0  0
   -2.0575   -0.5387   -0.2686 H   0  0  0  0  0  0  0  0  0  0  0  0
   -0.9077   -1.8218    0.1085 H   0  0  0  0  0  0  0  0  0  0  0  0
   -0.8246   -0.2755    0.9646 H   0  0  0  0  0  0  0  0  0  0  0  0
    4.2275    1.9228    1.2102 C   0  0  0  0  0  0  0  0  0  0  0  0
    4.7339    2.8843    1.1753 H   0  0  0  0  0  0  0  0  0  0  0  0
    3.8170    1.7767    2.2081 H   0  0  0  0  0  0  0  0  0  0  0  0
    3.3979    1.9133    0.5087 H   0  0  0  0  0  0  0  0  0  0  0  0
    5.1432    0.7679    0.8943 C   0  0  0  0  0  0  0  0  0  0  0  0
    4.7190   -0.3520    0.6092 O   0  0  0  0  0  0  0  0  0  0  0  0
    6.4693    1.0296    0.9535 N   0  0  0  0  0  0  0  0  0  0  0  0
    6.7673    1.9401    1.2512 H   0  0  0  0  0  0  0  0  0  0  0  0
    7.4517   -0.0105    0.7308 C   0  0  0  0  0  0  0  0  0  0  0  0
    7.0952   -0.6614   -0.0614 H   0  0  0  0  0  0  0  0  0  0  0  0
    8.3921    0.4430    0.4322 H   0  0  0  0  0  0  0  0  0  0  0  0
    7.6112   -0.6150    1.6228 H   0  0  0  0  0  0  0  0  0  0  0  0
  1  2  1  0  0  0  0
  1  3  1  0  0  0  0
  3  5  1  0  0  0  0
  3  6  1  0  0  0  0
  4  3  1  0  0  0  0
  7  9  1  0  0  0  0
  8  7  1  0  0  0  0
 10  7  1  0  0  0  0
 11 13  1  0  0  0  0
 11  7  1  0  0  0  0
 12 11  2  0  0  0  0
 13 14  1  0  0  0  0
 15 13  1  0  0  0  0
 15 18  1  0  0  0  0
 16 15  1  0  0  0  0
 17 15  1  0  0  0  0
M  END
>  <SMILES>
OC.CC(=O)NC

>  <MoleculeName>
MeOHPeptide200

>  <Distance Scale>
2.0

>  <Energy Value>
-1.1

$$$$
/home/S66X8/2786_11MeNH2Peptide200.xyz
 OpenBabel06262409173D

 19 17  0  0  0  0  0  0  0  0999 V2000
   -0.5697    0.8144    0.1011 N   0  0  0  0  0  0  0  0  0  0  0  0
    0.1309    0.5614   -0.5876 H   0  0  0  0  0  0  0  0  0  0  0  0
   -1.4613    0.5269   -0.2804 H   0  0  0  0  0  0  0  0  0  0  0  0
   -0.3055    0.0657    1.3288 C   0  0  0  0  0  0  0  0  0  0  0  0
   -1.0571    0.3143    2.0760 H   0  0  0  0  0  0  0  0  0  0  0  0
   -0.2880   -1.0223    1.2148 H   0  0  0  0  0  0  0  0  0  0  0  0
    0.6605    0.3685    1.7302 H   0  0  0  0  0  0  0  0  0  0  0  0
    5.2550    2.4770   -0.5604 C   0  0  0  0  0  0  0  0  0  0  0  0
    5.3796    2.8881   -1.5594 H   0  0  0  0  0  0  0  0  0  0  0  0
    5.7616    3.1179    0.1574 H   0  0  0  0  0  0  0  0  0  0  0  0
    4.1886    2.4504   -0.3419 H   0  0  0  0  0  0  0  0  0  0  0  0
    5.7670    1.0592   -0.5581 C   0  0  0  0  0  0  0  0  0  0  0  0
    5.3070    0.1934   -1.2972 O   0  0  0  0  0  0  0  0  0  0  0  0
    6.7535    0.7861    0.3343 N   0  0  0  0  0  0  0  0  0  0  0  0
    7.1533    1.5411    0.8596 H   0  0  0  0  0  0  0  0  0  0  0  0
    7.3419   -0.5335    0.4118 C   0  0  0  0  0  0  0  0  0  0  0  0
    6.5538   -1.2748    0.3188 H   0  0  0  0  0  0  0  0  0  0  0  0
    8.0632   -0.7055   -0.3868 H   0  0  0  0  0  0  0  0  0  0  0  0
    7.8366   -0.6493    1.3717 H   0  0  0  0  0  0  0  0  0  0  0  0
  1  4  1  0  0  0  0
  2  1  1  0  0  0  0
  3  1  1  0  0  0  0
  4  7  1  0  0  0  0
  4  5  1  0  0  0  0
  6  4  1  0  0  0  0
  8 12  1  0  0  0  0
  8 11  1  0  0  0  0
  8 10  1  0  0  0  0
  9  8  1  0  0  0  0
 12 14  1  0  0  0  0
 13 12  2  0  0  0  0
 14 16  1  0  0  0  0
 14 15  1  0  0  0  0
 16 19  1  0  0  0  0
 17 16  1  0  0  0  0
 18 16  1  0  0  0  0
M  END
>  <SMILES>
NC.CC(=O)NC

>  <MoleculeName>
MeNH2Peptide200

>  <Distance Scale>
2.0

>  <Energy Value>
-0.46

$$$$
/home/S66X8/3191_62PentaneAcNH2110.xyz
 OpenBabel06262409173D

 26 24  0  0  0  0  0  0  0  0999 V2000
   -2.5878   -0.3231    0.4695 C   0  0  0  0  0  0  0  0  0  0  0  0
   -2.6104   -0.8764   -0.4696 H   0  0  0  0  0  0  0  0  0  0  0  0
   -2.6597   -1.0519    1.2777 H   0  0  0  0  0  0  0  0  0  0  0  0
   -3.4760    0.3056    0.5090 H   0  0  0  0  0  0  0  0  0  0  0  0
   -1.3096    0.4974    0.5851 C   0  0  0  0  0  0  0  0  0  0  0  0
   -1.3173    1.0833    1.5063 H   0  0  0  0  0  0  0  0  0  0  0  0
   -1.2624    1.2156   -0.2368 H   0  0  0  0  0  0  0  0  0  0  0  0
   -0.0568   -0.3683    0.5584 C   0  0  0  0  0  0  0  0  0  0  0  0
   -0.0862   -1.0734    1.3959 H   0  0  0  0  0  0  0  0  0  0  0  0
   -0.0538   -0.9768   -0.3515 H   0  0  0  0  0  0  0  0  0  0  0  0
    1.2316    0.4401    0.6320 C   0  0  0  0  0  0  0  0  0  0  0  0
    1.2133    1.0536    1.5346 H   0  0  0  0  0  0  0  0  0  0  0  0
    1.2663    1.1314   -0.2131 H   0  0  0  0  0  0  0  0  0  0  0  0
    2.4726   -0.4431    0.6192 C   0  0  0  0  0  0  0  0  0  0  0  0
    2.5207   -1.0353   -0.2949 H   0  0  0  0  0  0  0  0  0  0  0  0
    3.3877    0.1441    0.6839 H   0  0  0  0  0  0  0  0  0  0  0  0
    2.4593   -1.1394    1.4586 H   0  0  0  0  0  0  0  0  0  0  0  0
    0.0491    0.2160    4.4418 C   0  0  0  0  0  0  0  0  0  0  0  0
    0.0760    1.4011    4.1500 O   0  0  0  0  0  0  0  0  0  0  0  0
    1.1817   -0.5358    4.5446 N   0  0  0  0  0  0  0  0  0  0  0  0
    2.0526   -0.1133    4.2760 H   0  0  0  0  0  0  0  0  0  0  0  0
    1.1427   -1.5277    4.6761 H   0  0  0  0  0  0  0  0  0  0  0  0
   -1.2411   -0.5229    4.7063 C   0  0  0  0  0  0  0  0  0  0  0  0
   -1.0939   -1.4836    5.1934 H   0  0  0  0  0  0  0  0  0  0  0  0
   -1.7474   -0.6812    3.7555 H   0  0  0  0  0  0  0  0  0  0  0  0
   -1.8791    0.1043    5.3215 H   0  0  0  0  0  0  0  0  0  0  0  0
  1  4  1  0  0  0  0
  1  5  1  0  0  0  0
  1  3  1  0  0  0  0
  2  1  1  0  0  0  0
  5  6  1  0  0  0  0
  7  5  1  0  0  0  0
  8  5  1  0  0  0  0
  8 11  1  0  0  0  0
  8  9  1  0  0  0  0
 10  8  1  0  0  0  0
 11 12  1  0  0  0  0
 13 11  1  0  0  0  0
 14 11  1  0  0  0  0
 14 16  1  0  0  0  0
 14 17  1  0  0  0  0
 15 14  1  0  0  0  0
 18 20  1  0  0  0  0
 18 23  1  0  0  0  0
 19 18  2  0  0  0  0
 20 22  1  0  0  0  0
 21 20  1  0  0  0  0
 23 24  1  0  0  0  0
 23 26  1  0  0  0  0
 25 23  1  0  0  0  0
M  END
>  <SMILES>
CCCCC.C(=O)(N)C

>  <MoleculeName>
PentaneAcNH2110

>  <Distance Scale>
1.1

>  <Energy Value>
-3.04

$$$$
/home/S66X8/2838_18WaterPyridine105.xyz
 OpenBabel06262409173D

 14 13  0  0  0  0  0  0  0  0999 V2000
   -0.5528   -0.1017   -0.0005 O   0  0  0  0  0  0  0  0  0  0  0  0
   -0.8718    0.8018    0.0001 H   0  0  0  0  0  0  0  0  0  0  0  0
    0.4127   -0.0018   -0.0003 H   0  0  0  0  0  0  0  0  0  0  0  0
    2.5054    0.1038    0.0002 N   0  0  0  0  0  0  0  0  0  0  0  0
    3.2013    0.0698    1.1449 C   0  0  0  0  0  0  0  0  0  0  0  0
    2.6166    0.0934    2.0558 H   0  0  0  0  0  0  0  0  0  0  0  0
    4.5903    0.0046    1.1949 C   0  0  0  0  0  0  0  0  0  0  0  0
    5.0962   -0.0203    2.1492 H   0  0  0  0  0  0  0  0  0  0  0  0
    5.3015   -0.0285    0.0000 C   0  0  0  0  0  0  0  0  0  0  0  0
    6.3813   -0.0803   -0.0001 H   0  0  0  0  0  0  0  0  0  0  0  0
    4.5902    0.0045   -1.1948 C   0  0  0  0  0  0  0  0  0  0  0  0
    5.0960   -0.0203   -2.1492 H   0  0  0  0  0  0  0  0  0  0  0  0
    3.2011    0.0697   -1.1446 C   0  0  0  0  0  0  0  0  0  0  0  0
    2.6164    0.0933   -2.0554 H   0  0  0  0  0  0  0  0  0  0  0  0
  1  3  1  0  0  0  0
  1  2  1  0  0  0  0
  4  5  1  0  0  0  0
  5  7  2  0  0  0  0
  5  6  1  0  0  0  0
  7  8  1  0  0  0  0
  9  7  1  0  0  0  0
 10  9  1  0  0  0  0
 11 13  1  0  0  0  0
 11  9  2  0  0  0  0
 12 11  1  0  0  0  0
 13  4  2  0  0  0  0
 14 13  1  0  0  0  0
M  END
>  <SMILES>
O.n1ccccc1

>  <MoleculeName>
WaterPyridine105

>  <Distance Scale>
1.05

>  <Energy Value>
-6.62

$$$$
/home/S66X8/3039_43UracilNeopentane110.xyz
 OpenBabel06262409173D

 29 28  0  0  0  0  0  0  0  0999 V2000
    0.6261   -0.8509    0.8059 N   0  0  0  0  0  0  0  0  0  0  0  0
    0.4092   -1.8115    1.0344 H   0  0  0  0  0  0  0  0  0  0  0  0
   -0.4325   -0.0873    0.2947 C   0  0  0  0  0  0  0  0  0  0  0  0
   -1.5308   -0.5884    0.1236 O   0  0  0  0  0  0  0  0  0  0  0  0
   -0.0669    1.2913    0.0196 C   0  0  0  0  0  0  0  0  0  0  0  0
   -0.8097    1.9518   -0.3928 H   0  0  0  0  0  0  0  0  0  0  0  0
    1.1835    1.7179    0.2905 C   0  0  0  0  0  0  0  0  0  0  0  0
    1.5019    2.7339    0.1098 H   0  0  0  0  0  0  0  0  0  0  0  0
    2.1341    0.8866    0.8191 N   0  0  0  0  0  0  0  0  0  0  0  0
    3.0553    1.2239    1.0434 H   0  0  0  0  0  0  0  0  0  0  0  0
    1.9028   -0.4432    1.1283 C   0  0  0  0  0  0  0  0  0  0  0  0
    2.7438   -1.1639    1.6286 O   0  0  0  0  0  0  0  0  0  0  0  0
   -0.7418   -0.0367    5.0625 C   0  0  0  0  0  0  0  0  0  0  0  0
   -2.0585    0.7046    5.2774 C   0  0  0  0  0  0  0  0  0  0  0  0
   -2.7656    0.0864    5.8322 H   0  0  0  0  0  0  0  0  0  0  0  0
   -1.8990    1.6248    5.8415 H   0  0  0  0  0  0  0  0  0  0  0  0
   -2.5162    0.9661    4.3222 H   0  0  0  0  0  0  0  0  0  0  0  0
   -0.1263   -0.3901    6.4138 C   0  0  0  0  0  0  0  0  0  0  0  0
    0.8168   -0.9225    6.2830 H   0  0  0  0  0  0  0  0  0  0  0  0
    0.0707    0.5096    6.9986 H   0  0  0  0  0  0  0  0  0  0  0  0
   -0.7976   -1.0279    6.9905 H   0  0  0  0  0  0  0  0  0  0  0  0
    0.2234    0.8568    4.2867 C   0  0  0  0  0  0  0  0  0  0  0  0
    1.1719    0.3442    4.1163 H   0  0  0  0  0  0  0  0  0  0  0  0
    0.4287    1.7749    4.8401 H   0  0  0  0  0  0  0  0  0  0  0  0
   -0.1990    1.1353    3.3192 H   0  0  0  0  0  0  0  0  0  0  0  0
   -1.0031   -1.3167    4.2721 C   0  0  0  0  0  0  0  0  0  0  0  0
   -1.4668   -1.0949    3.3095 H   0  0  0  0  0  0  0  0  0  0  0  0
   -0.0705   -1.8551    4.0925 H   0  0  0  0  0  0  0  0  0  0  0  0
   -1.6736   -1.9786    4.8223 H   0  0  0  0  0  0  0  0  0  0  0  0
  1  2  1  0  0  0  0
  1 11  1  0  0  0  0
  3  1  1  0  0  0  0
  4  3  2  0  0  0  0
  5  7  2  0  0  0  0
  5  3  1  0  0  0  0
  6  5  1  0  0  0  0
  7  9  1  0  0  0  0
  8  7  1  0  0  0  0
  9 10  1  0  0  0  0
  9 11  1  0  0  0  0
 11 12  2  0  0  0  0
 13 14  1  0  0  0  0
 13 18  1  0  0  0  0
 14 15  1  0  0  0  0
 14 16  1  0  0  0  0
 17 14  1  0  0  0  0
 18 21  1  0  0  0  0
 18 20  1  0  0  0  0
 19 18  1  0  0  0  0
 22 24  1  0  0  0  0
 22 13  1  0  0  0  0
 23 22  1  0  0  0  0
 25 22  1  0  0  0  0
 26 29  1  0  0  0  0
 26 13  1  0  0  0  0
 27 26  1  0  0  0  0
 28 26  1  0  0  0  0
M  END
>  <SMILES>
[nH]1c(=O)cc[nH]c1=O.C(C)(C)(C)C

>  <MoleculeName>
UracilNeopentane110

>  <Distance Scale>
1.1

>  <Energy Value>
-3.15

$$$$
/home/S66X8/3085_49BenzenePyridineTS100.xyz
 OpenBabel06262409173D

 23 23  0  0  0  0  0  0  0  0999 V2000
    0.8451    1.0579    0.6995 C   0  0  0  0  0  0  0  0  0  0  0  0
    1.5064    1.9032    0.8334 H   0  0  0  0  0  0  0  0  0  0  0  0
    1.3755   -0.2175    0.5112 C   0  0  0  0  0  0  0  0  0  0  0  0
    2.4472   -0.3615    0.5029 H   0  0  0  0  0  0  0  0  0  0  0  0
    0.5241   -1.3070    0.3332 C   0  0  0  0  0  0  0  0  0  0  0  0
    0.9357   -2.2960    0.1849 H   0  0  0  0  0  0  0  0  0  0  0  0
   -0.8577   -1.1215    0.3464 C   0  0  0  0  0  0  0  0  0  0  0  0
   -1.5184   -1.9665    0.2084 H   0  0  0  0  0  0  0  0  0  0  0  0
   -1.3880    0.1536    0.5376 C   0  0  0  0  0  0  0  0  0  0  0  0
   -2.4597    0.2974    0.5500 H   0  0  0  0  0  0  0  0  0  0  0  0
   -0.5366    1.2434    0.7127 C   0  0  0  0  0  0  0  0  0  0  0  0
   -0.9489    2.2328    0.8574 H   0  0  0  0  0  0  0  0  0  0  0  0
    0.0235    0.3588    6.7411 N   0  0  0  0  0  0  0  0  0  0  0  0
    0.1782    1.2968    5.7962 C   0  0  0  0  0  0  0  0  0  0  0  0
    0.3200    2.3093    6.1541 H   0  0  0  0  0  0  0  0  0  0  0  0
    0.1640    1.0295    4.4297 C   0  0  0  0  0  0  0  0  0  0  0  0
    0.2943    1.8305    3.7158 H   0  0  0  0  0  0  0  0  0  0  0  0
   -0.0203   -0.2821    4.0044 C   0  0  0  0  0  0  0  0  0  0  0  0
   -0.0369   -0.5253    2.9511 H   0  0  0  0  0  0  0  0  0  0  0  0
   -0.1822   -1.2672    4.9733 C   0  0  0  0  0  0  0  0  0  0  0  0
   -0.3287   -2.3024    4.6985 H   0  0  0  0  0  0  0  0  0  0  0  0
   -0.1530   -0.8998    6.3164 C   0  0  0  0  0  0  0  0  0  0  0  0
   -0.2766   -1.6473    7.0905 H   0  0  0  0  0  0  0  0  0  0  0  0
  1 11  1  0  0  0  0
  1  2  1  0  0  0  0
  3  1  2  0  0  0  0
  4  3  1  0  0  0  0
  5  7  2  0  0  0  0
  5  3  1  0  0  0  0
  6  5  1  0  0  0  0
  7  9  1  0  0  0  0
  8  7  1  0  0  0  0
  9 10  1  0  0  0  0
  9 11  2  0  0  0  0
 11 12  1  0  0  0  0
 14 15  1  0  0  0  0
 14 13  2  0  0  0  0
 16 14  1  0  0  0  0
 17 16  1  0  0  0  0
 18 16  2  0  0  0  0
 18 20  1  0  0  0  0
 19 18  1  0  0  0  0
 20 22  2  0  0  0  0
 21 20  1  0  0  0  0
 22 13  1  0  0  0  0
 22 23  1  0  0  0  0
M  END
>  <SMILES>
c1ccccc1.n1ccccc1

>  <MoleculeName>
BenzenePyridineTS100

>  <Distance Scale>
1.0

>  <Energy Value>
-3.32

$$$$
/home/S66X8/2827_17UracilUracilBP090.xyz
 OpenBabel06262409173D

 24 24  0  0  0  0  0  0  0  0999 V2000
   -0.7300    0.0228    0.0009 N   0  0  0  0  0  0  0  0  0  0  0  0
    0.2984    0.0740    0.0016 H   0  0  0  0  0  0  0  0  0  0  0  0
   -1.2968   -1.2404    0.0015 C   0  0  0  0  0  0  0  0  0  0  0  0
   -0.5941   -2.2535    0.0026 O   0  0  0  0  0  0  0  0  0  0  0  0
   -2.7436   -1.2623    0.0005 C   0  0  0  0  0  0  0  0  0  0  0  0
   -3.2496   -2.2118    0.0008 H   0  0  0  0  0  0  0  0  0  0  0  0
   -3.4220   -0.0959   -0.0009 C   0  0  0  0  0  0  0  0  0  0  0  0
   -4.5009   -0.0492   -0.0017 H   0  0  0  0  0  0  0  0  0  0  0  0
   -2.7748    1.1054   -0.0014 N   0  0  0  0  0  0  0  0  0  0  0  0
   -3.2838    1.9739   -0.0025 H   0  0  0  0  0  0  0  0  0  0  0  0
   -1.3915    1.2370   -0.0005 C   0  0  0  0  0  0  0  0  0  0  0  0
   -0.8398    2.3170   -0.0010 O   0  0  0  0  0  0  0  0  0  0  0  0
    3.9755   -1.0769    0.0005 N   0  0  0  0  0  0  0  0  0  0  0  0
    4.4227   -0.1704    0.0009 H   0  0  0  0  0  0  0  0  0  0  0  0
    4.8315   -2.1915   -0.0010 C   0  0  0  0  0  0  0  0  0  0  0  0
    6.0410   -2.0398   -0.0018 O   0  0  0  0  0  0  0  0  0  0  0  0
    4.1173   -3.4537   -0.0015 C   0  0  0  0  0  0  0  0  0  0  0  0
    4.6839   -4.3688   -0.0026 H   0  0  0  0  0  0  0  0  0  0  0  0
    2.7671   -3.4575   -0.0005 C   0  0  0  0  0  0  0  0  0  0  0  0
    2.1901   -4.3705   -0.0009 H   0  0  0  0  0  0  0  0  0  0  0  0
    2.0291   -2.3067    0.0009 N   0  0  0  0  0  0  0  0  0  0  0  0
    1.0028   -2.3281    0.0016 H   0  0  0  0  0  0  0  0  0  0  0  0
    2.6019   -1.0620    0.0015 C   0  0  0  0  0  0  0  0  0  0  0  0
    1.9516   -0.0208    0.0027 O   0  0  0  0  0  0  0  0  0  0  0  0
  1  3  1  0  0  0  0
  1  2  1  0  0  0  0
  3  4  2  0  0  0  0
  5  6  1  0  0  0  0
  5  3  1  0  0  0  0
  7  5  2  0  0  0  0
  8  7  1  0  0  0  0
  9  7  1  0  0  0  0
  9 11  1  0  0  0  0
 10  9  1  0  0  0  0
 11  1  1  0  0  0  0
 12 11  2  0  0  0  0
 13 14  1  0  0  0  0
 13 23  1  0  0  0  0
 15 13  1  0  0  0  0
 16 15  2  0  0  0  0
 17 15  1  0  0  0  0
 17 19  2  0  0  0  0
 18 17  1  0  0  0  0
 19 21  1  0  0  0  0
 20 19  1  0  0  0  0
 21 23  1  0  0  0  0
 21 22  1  0  0  0  0
 23 24  2  0  0  0  0
M  END
>  <SMILES>
[nH]1c(=O)cc[nH]c1=O.[nH]1c(=O)cc[nH]c1=O

>  <MoleculeName>
UracilUracilBP090

>  <Distance Scale>
0.9

>  <Energy Value>
-15.7

$$$$
/home/S66X8/2960_33PyridineEthene125.xyz
 OpenBabel06262409173D

 17 16  0  0  0  0  0  0  0  0999 V2000
    1.3814   -0.0002    0.1315 N   0  0  0  0  0  0  0  0  0  0  0  0
    0.6794   -1.1402    0.0921 C   0  0  0  0  0  0  0  0  0  0  0  0
    1.2587   -2.0550    0.1259 H   0  0  0  0  0  0  0  0  0  0  0  0
   -0.7097   -1.1931    0.0067 C   0  0  0  0  0  0  0  0  0  0  0  0
   -1.2141   -2.1486   -0.0253 H   0  0  0  0  0  0  0  0  0  0  0  0
   -1.4216    0.0001   -0.0408 C   0  0  0  0  0  0  0  0  0  0  0  0
   -2.5007    0.0003   -0.1092 H   0  0  0  0  0  0  0  0  0  0  0  0
   -0.7094    1.1932    0.0065 C   0  0  0  0  0  0  0  0  0  0  0  0
   -1.2135    2.1487   -0.0255 H   0  0  0  0  0  0  0  0  0  0  0  0
    0.6797    1.1400    0.0919 C   0  0  0  0  0  0  0  0  0  0  0  0
    1.2593    2.0545    0.1255 H   0  0  0  0  0  0  0  0  0  0  0  0
    0.0264    0.6665    4.2383 C   0  0  0  0  0  0  0  0  0  0  0  0
    0.9368    1.2260    4.0792 H   0  0  0  0  0  0  0  0  0  0  0  0
   -0.8832    1.2289    4.3953 H   0  0  0  0  0  0  0  0  0  0  0  0
    0.0267   -0.6662    4.2384 C   0  0  0  0  0  0  0  0  0  0  0  0
    0.9374   -1.2253    4.0794 H   0  0  0  0  0  0  0  0  0  0  0  0
   -0.8826   -1.2290    4.3955 H   0  0  0  0  0  0  0  0  0  0  0  0
  2  3  1  0  0  0  0
  2  1  1  0  0  0  0
  4  2  2  0  0  0  0
  5  4  1  0  0  0  0
  6  8  2  0  0  0  0
  6  4  1  0  0  0  0
  7  6  1  0  0  0  0
  8 10  1  0  0  0  0
  9  8  1  0  0  0  0
 10 11  1  0  0  0  0
 10  1  2  0  0  0  0
 12 15  2  0  0  0  0
 12 14  1  0  0  0  0
 13 12  1  0  0  0  0
 15 17  1  0  0  0  0
 16 15  1  0  0  0  0
M  END
>  <SMILES>
n1ccccc1.C=C

>  <MoleculeName>
PyridineEthene125

>  <Distance Scale>
1.25

>  <Energy Value>
-1.03

$$$$
/home/S66X8/2983_36NeopentaneNeopentane110.xyz
 OpenBabel06262409173D

 34 32  0  0  0  0  0  0  0  0999 V2000
    0.3825   -0.0706    0.7669 C   0  0  0  0  0  0  0  0  0  0  0  0
   -1.0406    0.3968    1.0609 C   0  0  0  0  0  0  0  0  0  0  0  0
   -1.7716   -0.2815    0.6183 H   0  0  0  0  0  0  0  0  0  0  0  0
   -1.2247    0.4357    2.1355 H   0  0  0  0  0  0  0  0  0  0  0  0
   -1.2141    1.3937    0.6531 H   0  0  0  0  0  0  0  0  0  0  0  0
    0.5908   -1.4668    1.3480 C   0  0  0  0  0  0  0  0  0  0  0  0
    1.6029   -1.8229    1.1501 H   0  0  0  0  0  0  0  0  0  0  0  0
    0.4390   -1.4667    2.4283 H   0  0  0  0  0  0  0  0  0  0  0  0
   -0.1099   -2.1787    0.9093 H   0  0  0  0  0  0  0  0  0  0  0  0
    1.3783    0.8984    1.3991 C   0  0  0  0  0  0  0  0  0  0  0  0
    2.4044    0.5854    1.2007 H   0  0  0  0  0  0  0  0  0  0  0  0
    1.2438    0.9460    2.4807 H   0  0  0  0  0  0  0  0  0  0  0  0
    1.2484    1.9050    0.9990 H   0  0  0  0  0  0  0  0  0  0  0  0
    0.6020   -0.1110   -0.7431 C   0  0  0  0  0  0  0  0  0  0  0  0
    0.4592    0.8770   -1.1829 H   0  0  0  0  0  0  0  0  0  0  0  0
    1.6137   -0.4435   -0.9797 H   0  0  0  0  0  0  0  0  0  0  0  0
   -0.0995   -0.7975   -1.2192 H   0  0  0  0  0  0  0  0  0  0  0  0
   -0.4260    0.0787    6.3161 C   0  0  0  0  0  0  0  0  0  0  0  0
    0.9968   -0.3902    6.0227 C   0  0  0  0  0  0  0  0  0  0  0  0
    1.1813   -0.4296    4.9482 H   0  0  0  0  0  0  0  0  0  0  0  0
    1.7283    0.2874    6.4655 H   0  0  0  0  0  0  0  0  0  0  0  0
    1.1691   -1.3872    6.4309 H   0  0  0  0  0  0  0  0  0  0  0  0
   -0.6324    1.4753    5.7353 C   0  0  0  0  0  0  0  0  0  0  0  0
   -1.6443    1.8323    5.9322 H   0  0  0  0  0  0  0  0  0  0  0  0
    0.0686    2.1864    6.1750 H   0  0  0  0  0  0  0  0  0  0  0  0
   -0.4793    1.4755    4.6552 H   0  0  0  0  0  0  0  0  0  0  0  0
   -0.6463    0.1189    7.8260 C   0  0  0  0  0  0  0  0  0  0  0  0
   -1.6575    0.4532    8.0621 H   0  0  0  0  0  0  0  0  0  0  0  0
    0.0562    0.8038    8.3028 H   0  0  0  0  0  0  0  0  0  0  0  0
   -0.5057   -0.8696    8.2654 H   0  0  0  0  0  0  0  0  0  0  0  0
   -1.4224   -0.8891    5.6830 C   0  0  0  0  0  0  0  0  0  0  0  0
   -1.2935   -1.8960    6.0826 H   0  0  0  0  0  0  0  0  0  0  0  0
   -2.4483   -0.5753    5.8814 H   0  0  0  0  0  0  0  0  0  0  0  0
   -1.2877   -0.9360    4.6014 H   0  0  0  0  0  0  0  0  0  0  0  0
  1  2  1  0  0  0  0
  1  6  1  0  0  0  0
  1 10  1  0  0  0  0
  2  4  1  0  0  0  0
  3  2  1  0  0  0  0
  5  2  1  0  0  0  0
  6  8  1  0  0  0  0
  7  6  1  0  0  0  0
  9  6  1  0  0  0  0
 10 12  1  0  0  0  0
 11 10  1  0  0  0  0
 13 10  1  0  0  0  0
 14  1  1  0  0  0  0
 15 14  1  0  0  0  0
 16 14  1  0  0  0  0
 17 14  1  0  0  0  0
 18 27  1  0  0  0  0
 19 18  1  0  0  0  0
 19 22  1  0  0  0  0
 19 21  1  0  0  0  0
 20 19  1  0  0  0  0
 23 24  1  0  0  0  0
 23 25  1  0  0  0  0
 23 18  1  0  0  0  0
 26 23  1  0  0  0  0
 27 28  1  0  0  0  0
 27 30  1  0  0  0  0
 27 29  1  0  0  0  0
 31 33  1  0  0  0  0
 31 32  1  0  0  0  0
 31 18  1  0  0  0  0
 34 31  1  0  0  0  0
M  END
>  <SMILES>
C(C)(C)(C)C.C(C)(C)(C)C

>  <MoleculeName>
NeopentaneNeopentane110

>  <Distance Scale>
1.1

>  <Energy Value>
-1.54

$$$$
/home/S66X8/3135_55BenzeneMeOHOHpi110.xyz
 OpenBabel06262409173D

 18 17  0  0  0  0  0  0  0  0999 V2000
    0.7597    1.0313    0.3738 C   0  0  0  0  0  0  0  0  0  0  0  0
    1.4350    1.8757    0.3747 H   0  0  0  0  0  0  0  0  0  0  0  0
    1.2666   -0.2674    0.4213 C   0  0  0  0  0  0  0  0  0  0  0  0
    2.3349   -0.4292    0.4594 H   0  0  0  0  0  0  0  0  0  0  0  0
    0.3953   -1.3560    0.4249 C   0  0  0  0  0  0  0  0  0  0  0  0
    0.7887   -2.3625    0.4630 H   0  0  0  0  0  0  0  0  0  0  0  0
   -0.9822   -1.1467    0.3813 C   0  0  0  0  0  0  0  0  0  0  0  0
   -1.6577   -1.9911    0.3851 H   0  0  0  0  0  0  0  0  0  0  0  0
   -1.4893    0.1511    0.3376 C   0  0  0  0  0  0  0  0  0  0  0  0
   -2.5579    0.3138    0.3077 H   0  0  0  0  0  0  0  0  0  0  0  0
   -0.6188    1.2403    0.3339 C   0  0  0  0  0  0  0  0  0  0  0  0
   -1.0118    2.2471    0.3044 H   0  0  0  0  0  0  0  0  0  0  0  0
    0.0247    0.2937    3.9558 O   0  0  0  0  0  0  0  0  0  0  0  0
    0.1108    0.3436    2.9986 H   0  0  0  0  0  0  0  0  0  0  0  0
   -0.8715   -0.7639    4.2389 C   0  0  0  0  0  0  0  0  0  0  0  0
   -0.9672   -0.8206    5.3198 H   0  0  0  0  0  0  0  0  0  0  0  0
   -1.8636   -0.5922    3.8151 H   0  0  0  0  0  0  0  0  0  0  0  0
   -0.5050   -1.7269    3.8759 H   0  0  0  0  0  0  0  0  0  0  0  0
  1  2  1  0  0  0  0
  1  3  1  0  0  0  0
  3  5  2  0  0  0  0
  3  4  1  0  0  0  0
  5  6  1  0  0  0  0
  7  8  1  0  0  0  0
  7  5  1  0  0  0  0
  9  7  2  0  0  0  0
 10  9  1  0  0  0  0
 11  9  1  0  0  0  0
 11  1  2  0  0  0  0
 12 11  1  0  0  0  0
 13 15  1  0  0  0  0
 14 13  1  0  0  0  0
 15 16  1  0  0  0  0
 17 15  1  0  0  0  0
 18 15  1  0  0  0  0
M  END
>  <SMILES>
c1ccccc1.OC

>  <MoleculeName>
BenzeneMeOHOHpi110

>  <Distance Scale>
1.1

>  <Energy Value>
-3.8

$$$$
/home/S66X8/3112_52BenzeneAcOHOHpi125.xyz
 OpenBabel06262409173D

 20 19  0  0  0  0  0  0  0  0999 V2000
    0.9641    0.8751    0.3780 C   0  0  0  0  0  0  0  0  0  0  0  0
    1.6598    1.6999    0.4460 H   0  0  0  0  0  0  0  0  0  0  0  0
    1.4311   -0.4131    0.1190 C   0  0  0  0  0  0  0  0  0  0  0  0
    2.4895   -0.5872   -0.0170 H   0  0  0  0  0  0  0  0  0  0  0  0
    0.5341   -1.4776    0.0424 C   0  0  0  0  0  0  0  0  0  0  0  0
    0.8970   -2.4774   -0.1520 H   0  0  0  0  0  0  0  0  0  0  0  0
   -0.8303   -1.2536    0.2209 C   0  0  0  0  0  0  0  0  0  0  0  0
   -1.5258   -2.0796    0.1641 H   0  0  0  0  0  0  0  0  0  0  0  0
   -1.2976    0.0344    0.4802 C   0  0  0  0  0  0  0  0  0  0  0  0
   -2.3544    0.2080    0.6286 H   0  0  0  0  0  0  0  0  0  0  0  0
   -0.4004    1.0998    0.5616 C   0  0  0  0  0  0  0  0  0  0  0  0
   -0.7605    2.0938    0.7848 H   0  0  0  0  0  0  0  0  0  0  0  0
   -0.0704    0.4348    5.0294 C   0  0  0  0  0  0  0  0  0  0  0  0
   -0.5386    1.4842    4.6502 O   0  0  0  0  0  0  0  0  0  0  0  0
    0.3328   -0.5428    4.1901 O   0  0  0  0  0  0  0  0  0  0  0  0
    0.1641   -0.2169    3.2887 H   0  0  0  0  0  0  0  0  0  0  0  0
    0.1395    0.0378    6.4608 C   0  0  0  0  0  0  0  0  0  0  0  0
   -0.1704    0.8471    7.1108 H   0  0  0  0  0  0  0  0  0  0  0  0
   -0.4365   -0.8589    6.6778 H   0  0  0  0  0  0  0  0  0  0  0  0
    1.1880   -0.1984    6.6258 H   0  0  0  0  0  0  0  0  0  0  0  0
  1  2  1  0  0  0  0
  1 11  1  0  0  0  0
  3  1  2  0  0  0  0
  4  3  1  0  0  0  0
  5  3  1  0  0  0  0
  5  7  2  0  0  0  0
  6  5  1  0  0  0  0
  7  9  1  0  0  0  0
  8  7  1  0  0  0  0
  9 11  2  0  0  0  0
  9 10  1  0  0  0  0
 11 12  1  0  0  0  0
 13 17  1  0  0  0  0
 14 13  2  0  0  0  0
 15 13  1  0  0  0  0
 16 15  1  0  0  0  0
 17 20  1  0  0  0  0
 17 19  1  0  0  0  0
 17 18  1  0  0  0  0
M  END
>  <SMILES>
c1ccccc1.C(=O)(O)C

>  <MoleculeName>
BenzeneAcOHOHpi125

>  <Distance Scale>
1.25

>  <Energy Value>
-3.13

$$$$
/home/S66X8/2920_28BenzeneUracilpipi125.xyz
 OpenBabel06262409173D

 24 24  0  0  0  0  0  0  0  0999 V2000
    0.8258    1.2365   -0.0403 C   0  0  0  0  0  0  0  0  0  0  0  0
    1.5210    2.0631   -0.0825 H   0  0  0  0  0  0  0  0  0  0  0  0
    1.3002   -0.0629    0.1273 C   0  0  0  0  0  0  0  0  0  0  0  0
    2.3637   -0.2423    0.2077 H   0  0  0  0  0  0  0  0  0  0  0  0
    0.4035   -1.1286    0.1982 C   0  0  0  0  0  0  0  0  0  0  0  0
    0.7738   -2.1374    0.3241 H   0  0  0  0  0  0  0  0  0  0  0  0
   -0.9678   -0.8952    0.1031 C   0  0  0  0  0  0  0  0  0  0  0  0
   -1.6652   -1.7200    0.1604 H   0  0  0  0  0  0  0  0  0  0  0  0
   -1.4435    0.4045   -0.0624 C   0  0  0  0  0  0  0  0  0  0  0  0
   -2.5075    0.5855   -0.1242 H   0  0  0  0  0  0  0  0  0  0  0  0
   -0.5458    1.4688   -0.1362 C   0  0  0  0  0  0  0  0  0  0  0  0
   -0.9142    2.4774   -0.2679 H   0  0  0  0  0  0  0  0  0  0  0  0
   -0.2466    0.5921    3.9650 N   0  0  0  0  0  0  0  0  0  0  0  0
   -0.6199    1.4939    3.7021 H   0  0  0  0  0  0  0  0  0  0  0  0
    1.1455    0.5191    4.0970 C   0  0  0  0  0  0  0  0  0  0  0  0
    1.8364    1.5136    3.9522 O   0  0  0  0  0  0  0  0  0  0  0  0
    1.6244   -0.8149    4.4151 C   0  0  0  0  0  0  0  0  0  0  0  0
    2.6815   -0.9672    4.5492 H   0  0  0  0  0  0  0  0  0  0  0  0
    0.7447   -1.8293    4.5413 C   0  0  0  0  0  0  0  0  0  0  0  0
    1.0507   -2.8377    4.7778 H   0  0  0  0  0  0  0  0  0  0  0  0
   -0.6005   -1.6443    4.3712 N   0  0  0  0  0  0  0  0  0  0  0  0
   -1.2493   -2.4069    4.4701 H   0  0  0  0  0  0  0  0  0  0  0  0
   -1.1750   -0.4195    4.0718 C   0  0  0  0  0  0  0  0  0  0  0  0
   -2.3728   -0.2687    3.9297 O   0  0  0  0  0  0  0  0  0  0  0  0
  1  3  1  0  0  0  0
  2  1  1  0  0  0  0
  3  5  2  0  0  0  0
  3  4  1  0  0  0  0
  5  6  1  0  0  0  0
  7  8  1  0  0  0  0
  7  5  1  0  0  0  0
  9  7  2  0  0  0  0
 10  9  1  0  0  0  0
 11  9  1  0  0  0  0
 11  1  2  0  0  0  0
 12 11  1  0  0  0  0
 13 23  1  0  0  0  0
 13 15  1  0  0  0  0
 14 13  1  0  0  0  0
 15 17  1  0  0  0  0
 16 15  2  0  0  0  0
 17 19  2  0  0  0  0
 17 18  1  0  0  0  0
 19 20  1  0  0  0  0
 21 22  1  0  0  0  0
 21 19  1  0  0  0  0
 23 21  1  0  0  0  0
 24 23  2  0  0  0  0
M  END
>  <SMILES>
c1ccccc1.[nH]1c(=O)cc[nH]c1=O

>  <MoleculeName>
BenzeneUracilpipi125

>  <Distance Scale>
1.25

>  <Energy Value>
-3.29

$$$$
/home/S66X8/2745_06MeOHMeNH2150.xyz
 OpenBabel06262409173D

 13 11  0  0  0  0  0  0  0  0999 V2000
   -0.7069    0.0458    0.0064 O   0  0  0  0  0  0  0  0  0  0  0  0
    0.2656    0.0717    0.0013 H   0  0  0  0  0  0  0  0  0  0  0  0
   -1.0767   -1.3139    0.0016 C   0  0  0  0  0  0  0  0  0  0  0  0
   -2.1629   -1.3632    0.0059 H   0  0  0  0  0  0  0  0  0  0  0  0
   -0.7234   -1.8447   -0.8877 H   0  0  0  0  0  0  0  0  0  0  0  0
   -0.7161   -1.8528    0.8831 H   0  0  0  0  0  0  0  0  0  0  0  0
    3.2152   -0.0931   -0.0058 N   0  0  0  0  0  0  0  0  0  0  0  0
    3.5858    0.4147    0.7873 H   0  0  0  0  0  0  0  0  0  0  0  0
    3.5859    0.3713   -0.8250 H   0  0  0  0  0  0  0  0  0  0  0  0
    3.6929   -1.4791    0.0317 C   0  0  0  0  0  0  0  0  0  0  0  0
    3.3010   -2.0131   -0.8305 H   0  0  0  0  0  0  0  0  0  0  0  0
    4.7796   -1.5858    0.0347 H   0  0  0  0  0  0  0  0  0  0  0  0
    3.3008   -1.9658    0.9213 H   0  0  0  0  0  0  0  0  0  0  0  0
  2  1  1  0  0  0  0
  3  4  1  0  0  0  0
  3  1  1  0  0  0  0
  3  6  1  0  0  0  0
  5  3  1  0  0  0  0
  7 10  1  0  0  0  0
  7  8  1  0  0  0  0
  9  7  1  0  0  0  0
 10 12  1  0  0  0  0
 10 13  1  0  0  0  0
 11 10  1  0  0  0  0
M  END
>  <SMILES>
OC.NC

>  <MoleculeName>
MeOHMeNH2150

>  <Distance Scale>
1.5

>  <Energy Value>
-3.35

$$$$
/home/S66X8/3180_61PentaneAcOH095.xyz
 OpenBabel06262409173D

 25 23  0  0  0  0  0  0  0  0999 V2000
   -2.2753   -0.1351    0.8313 C   0  0  0  0  0  0  0  0  0  0  0  0
   -2.4907   -0.7279   -0.0576 H   0  0  0  0  0  0  0  0  0  0  0  0
   -2.2263   -0.8184    1.6788 H   0  0  0  0  0  0  0  0  0  0  0  0
   -3.1120    0.5449    0.9874 H   0  0  0  0  0  0  0  0  0  0  0  0
   -0.9617    0.6193    0.6694 C   0  0  0  0  0  0  0  0  0  0  0  0
   -0.7887    1.2504    1.5447 H   0  0  0  0  0  0  0  0  0  0  0  0
   -1.0262    1.2954   -0.1865 H   0  0  0  0  0  0  0  0  0  0  0  0
    0.2265   -0.3147    0.4800 C   0  0  0  0  0  0  0  0  0  0  0  0
    0.3094   -0.9751    1.3480 H   0  0  0  0  0  0  0  0  0  0  0  0
    0.0392   -0.9660   -0.3788 H   0  0  0  0  0  0  0  0  0  0  0  0
    1.5430    0.4212    0.2690 C   0  0  0  0  0  0  0  0  0  0  0  0
    1.7116    1.1078    1.1024 H   0  0  0  0  0  0  0  0  0  0  0  0
    1.4661    1.0437   -0.6253 H   0  0  0  0  0  0  0  0  0  0  0  0
    2.7276   -0.5269    0.1375 C   0  0  0  0  0  0  0  0  0  0  0  0
    2.5887   -1.2032   -0.7058 H   0  0  0  0  0  0  0  0  0  0  0  0
    3.6615    0.0117   -0.0160 H   0  0  0  0  0  0  0  0  0  0  0  0
    2.8352   -1.1374    1.0341 H   0  0  0  0  0  0  0  0  0  0  0  0
   -0.4754   -0.2857    4.0795 C   0  0  0  0  0  0  0  0  0  0  0  0
   -0.8980   -1.4009    3.8823 O   0  0  0  0  0  0  0  0  0  0  0  0
   -1.2891    0.7732    4.3120 O   0  0  0  0  0  0  0  0  0  0  0  0
   -2.1899    0.4188    4.2715 H   0  0  0  0  0  0  0  0  0  0  0  0
    0.9649    0.1239    4.0967 C   0  0  0  0  0  0  0  0  0  0  0  0
    1.5907   -0.7463    3.9385 H   0  0  0  0  0  0  0  0  0  0  0  0
    1.1409    0.8582    3.3135 H   0  0  0  0  0  0  0  0  0  0  0  0
    1.2022    0.5932    5.0485 H   0  0  0  0  0  0  0  0  0  0  0  0
  1  4  1  0  0  0  0
  1  3  1  0  0  0  0
  2  1  1  0  0  0  0
  5  1  1  0  0  0  0
  5  6  1  0  0  0  0
  7  5  1  0  0  0  0
  8  5  1  0  0  0  0
  8  9  1  0  0  0  0
 10  8  1  0  0  0  0
 11  8  1  0  0  0  0
 11 12  1  0  0  0  0
 13 11  1  0  0  0  0
 14 11  1  0  0  0  0
 14 17  1  0  0  0  0
 15 14  1  0  0  0  0
 16 14  1  0  0  0  0
 18 22  1  0  0  0  0
 18 20  1  0  0  0  0
 19 18  2  0  0  0  0
 21 20  1  0  0  0  0
 22 25  1  0  0  0  0
 23 22  1  0  0  0  0
 24 22  1  0  0  0  0
M  END
>  <SMILES>
CCCCC.C(=O)(O)C

>  <MoleculeName>
PentaneAcOH095

>  <Distance Scale>
0.95

>  <Energy Value>
-2.9

$$$$
/home/S66X8/2848_19MeOHPyridine125.xyz
 OpenBabel06262409173D

 17 16  0  0  0  0  0  0  0  0999 V2000
   -0.6277    0.0875    0.0015 O   0  0  0  0  0  0  0  0  0  0  0  0
    0.3436    0.1223   -0.0006 H   0  0  0  0  0  0  0  0  0  0  0  0
   -0.9779   -1.2786    0.0012 C   0  0  0  0  0  0  0  0  0  0  0  0
   -2.0634   -1.3420    0.0050 H   0  0  0  0  0  0  0  0  0  0  0  0
   -0.6149   -1.8064   -0.8854 H   0  0  0  0  0  0  0  0  0  0  0  0
   -0.6086   -1.8082    0.8842 H   0  0  0  0  0  0  0  0  0  0  0  0
    2.7810   -0.0115   -0.0019 N   0  0  0  0  0  0  0  0  0  0  0  0
    3.4774   -0.0359   -1.1466 C   0  0  0  0  0  0  0  0  0  0  0  0
    2.8929   -0.0127   -2.0576 H   0  0  0  0  0  0  0  0  0  0  0  0
    4.8670   -0.0857   -1.1953 C   0  0  0  0  0  0  0  0  0  0  0  0
    5.3744   -0.1030   -2.1491 H   0  0  0  0  0  0  0  0  0  0  0  0
    5.5774   -0.1114    0.0003 C   0  0  0  0  0  0  0  0  0  0  0  0
    6.6577   -0.1491    0.0012 H   0  0  0  0  0  0  0  0  0  0  0  0
    4.8652   -0.0864    1.1949 C   0  0  0  0  0  0  0  0  0  0  0  0
    5.3710   -0.1042    2.1493 H   0  0  0  0  0  0  0  0  0  0  0  0
    3.4756   -0.0366    1.1439 C   0  0  0  0  0  0  0  0  0  0  0  0
    2.8896   -0.0139    2.0540 H   0  0  0  0  0  0  0  0  0  0  0  0
  2  1  1  0  0  0  0
  3  1  1  0  0  0  0
  3  4  1  0  0  0  0
  3  6  1  0  0  0  0
  5  3  1  0  0  0  0
  7 16  1  0  0  0  0
  8  7  2  0  0  0  0
  9  8  1  0  0  0  0
 10  8  1  0  0  0  0
 10 12  2  0  0  0  0
 11 10  1  0  0  0  0
 12 13  1  0  0  0  0
 12 14  1  0  0  0  0
 14 15  1  0  0  0  0
 16 14  2  0  0  0  0
 16 17  1  0  0  0  0
M  END
>  <SMILES>
OC.n1ccccc1

>  <MoleculeName>
MeOHPyridine125

>  <Distance Scale>
1.25

>  <Energy Value>
-5.48

$$$$
/home/S66X8/2867_22AcOHUracil090.xyz
 OpenBabel06262409173D

 20 19  0  0  0  0  0  0  0  0999 V2000
   -1.1136    1.3270    0.2752 C   0  0  0  0  0  0  0  0  0  0  0  0
   -0.4671    2.3494    0.4615 O   0  0  0  0  0  0  0  0  0  0  0  0
   -0.5781    0.1369    0.0496 O   0  0  0  0  0  0  0  0  0  0  0  0
    0.4133    0.2033    0.0555 H   0  0  0  0  0  0  0  0  0  0  0  0
   -2.6114    1.2862    0.2774 C   0  0  0  0  0  0  0  0  0  0  0  0
   -3.0066    2.2769    0.4658 H   0  0  0  0  0  0  0  0  0  0  0  0
   -2.9643    0.9153   -0.6820 H   0  0  0  0  0  0  0  0  0  0  0  0
   -2.9531    0.5918    1.0412 H   0  0  0  0  0  0  0  0  0  0  0  0
    4.0265    1.0839    0.1835 N   0  0  0  0  0  0  0  0  0  0  0  0
    4.4197    0.1685    0.0118 H   0  0  0  0  0  0  0  0  0  0  0  0
    4.9481    2.1320    0.3649 C   0  0  0  0  0  0  0  0  0  0  0  0
    6.1452    1.9137    0.3121 O   0  0  0  0  0  0  0  0  0  0  0  0
    4.3090    3.4114    0.6056 C   0  0  0  0  0  0  0  0  0  0  0  0
    4.9285    4.2784    0.7570 H   0  0  0  0  0  0  0  0  0  0  0  0
    2.9619    3.4914    0.6349 C   0  0  0  0  0  0  0  0  0  0  0  0
    2.4391    4.4199    0.8102 H   0  0  0  0  0  0  0  0  0  0  0  0
    2.1582    2.4007    0.4445 N   0  0  0  0  0  0  0  0  0  0  0  0
    1.1341    2.4707    0.4683 H   0  0  0  0  0  0  0  0  0  0  0  0
    2.6581    1.1505    0.2104 C   0  0  0  0  0  0  0  0  0  0  0  0
    1.9461    0.1610    0.0369 O   0  0  0  0  0  0  0  0  0  0  0  0
  1  5  1  0  0  0  0
  1  2  2  0  0  0  0
  3  4  1  0  0  0  0
  3  1  1  0  0  0  0
  5  6  1  0  0  0  0
  5  8  1  0  0  0  0
  7  5  1  0  0  0  0
  9 19  1  0  0  0  0
  9 11  1  0  0  0  0
 10  9  1  0  0  0  0
 11 13  1  0  0  0  0
 12 11  2  0  0  0  0
 13 15  2  0  0  0  0
 13 14  1  0  0  0  0
 15 16  1  0  0  0  0
 17 18  1  0  0  0  0
 17 15  1  0  0  0  0
 19 17  1  0  0  0  0
 20 19  2  0  0  0  0
M  END
>  <SMILES>
C(=O)(O)C.[nH]1c(=O)cc[nH]c1=O

>  <MoleculeName>
AcOHUracil090

>  <Distance Scale>
0.9

>  <Energy Value>
-17.9

$$$$
/home/S66X8/3203_64PeptideEthene090.xyz
 OpenBabel06262409173D

 18 16  0  0  0  0  0  0  0  0999 V2000
    1.6297    0.5030    0.2701 C   0  0  0  0  0  0  0  0  0  0  0  0
    1.6416    1.4592   -0.2481 H   0  0  0  0  0  0  0  0  0  0  0  0
    2.3153   -0.1836   -0.2176 H   0  0  0  0  0  0  0  0  0  0  0  0
    1.9697    0.6494    1.2940 H   0  0  0  0  0  0  0  0  0  0  0  0
    0.2618   -0.1329    0.3146 C   0  0  0  0  0  0  0  0  0  0  0  0
    0.0993   -1.3096    0.6118 O   0  0  0  0  0  0  0  0  0  0  0  0
   -0.7735    0.7025    0.0221 N   0  0  0  0  0  0  0  0  0  0  0  0
   -0.5690    1.6666   -0.1658 H   0  0  0  0  0  0  0  0  0  0  0  0
   -2.1500    0.2660    0.0951 C   0  0  0  0  0  0  0  0  0  0  0  0
   -2.1447   -0.8194    0.1009 H   0  0  0  0  0  0  0  0  0  0  0  0
   -2.6405    0.6158    1.0036 H   0  0  0  0  0  0  0  0  0  0  0  0
   -2.7077    0.6208   -0.7683 H   0  0  0  0  0  0  0  0  0  0  0  0
   -0.0776    0.5200    3.5658 C   0  0  0  0  0  0  0  0  0  0  0  0
   -0.0825    1.2621    4.3517 H   0  0  0  0  0  0  0  0  0  0  0  0
   -0.7261    0.6877    2.7172 H   0  0  0  0  0  0  0  0  0  0  0  0
    0.6909   -0.5670    3.6357 C   0  0  0  0  0  0  0  0  0  0  0  0
    1.3362   -0.7388    4.4858 H   0  0  0  0  0  0  0  0  0  0  0  0
    0.6858   -1.3022    2.8433 H   0  0  0  0  0  0  0  0  0  0  0  0
  1  5  1  0  0  0  0
  1  4  1  0  0  0  0
  2  1  1  0  0  0  0
  3  1  1  0  0  0  0
  5  6  2  0  0  0  0
  7  9  1  0  0  0  0
  7  5  1  0  0  0  0
  8  7  1  0  0  0  0
  9 10  1  0  0  0  0
  9 11  1  0  0  0  0
 12  9  1  0  0  0  0
 13 16  2  0  0  0  0
 13 14  1  0  0  0  0
 15 13  1  0  0  0  0
 16 17  1  0  0  0  0
 18 16  1  0  0  0  0
M  END
>  <SMILES>
CC(=O)NC.C=C

>  <MoleculeName>
PeptideEthene090

>  <Distance Scale>
0.9

>  <Energy Value>
-2.6

$$$$
/home/S66X8/2767_09MeNH2MeOH110.xyz
 OpenBabel06262409173D

 13 11  0  0  0  0  0  0  0  0999 V2000
   -0.8935   -0.0438   -0.0430 N   0  0  0  0  0  0  0  0  0  0  0  0
    0.0969   -0.2561   -0.0711 H   0  0  0  0  0  0  0  0  0  0  0  0
   -1.3684   -0.9334    0.0338 H   0  0  0  0  0  0  0  0  0  0  0  0
   -1.1758    0.7579    1.1452 C   0  0  0  0  0  0  0  0  0  0  0  0
   -2.2416    0.9722    1.1950 H   0  0  0  0  0  0  0  0  0  0  0  0
   -0.8808    0.3042    2.0972 H   0  0  0  0  0  0  0  0  0  0  0  0
   -0.6630    1.7143    1.0608 H   0  0  0  0  0  0  0  0  0  0  0  0
    2.5721   -0.0200    0.0408 O   0  0  0  0  0  0  0  0  0  0  0  0
    2.8542    0.3499   -0.7990 H   0  0  0  0  0  0  0  0  0  0  0  0
    2.9581    0.8915    1.0603 C   0  0  0  0  0  0  0  0  0  0  0  0
    2.6349    0.4619    2.0033 H   0  0  0  0  0  0  0  0  0  0  0  0
    4.0391    1.0306    1.0993 H   0  0  0  0  0  0  0  0  0  0  0  0
    2.4796    1.8651    0.9451 H   0  0  0  0  0  0  0  0  0  0  0  0
  1  3  1  0  0  0  0
  1  4  1  0  0  0  0
  2  1  1  0  0  0  0
  4  5  1  0  0  0  0
  4  6  1  0  0  0  0
  7  4  1  0  0  0  0
  8 10  1  0  0  0  0
  9  8  1  0  0  0  0
 10 12  1  0  0  0  0
 10 11  1  0  0  0  0
 13 10  1  0  0  0  0
M  END
>  <SMILES>
NC.OC

>  <MoleculeName>
MeNH2MeOH110

>  <Distance Scale>
1.1

>  <Energy Value>
-2.69

$$$$
/home/S66X8/2771_10MeNH2MeNH2090.xyz
 OpenBabel06262409173D

 14 12  0  0  0  0  0  0  0  0999 V2000
   -0.6386    0.4709    0.0446 N   0  0  0  0  0  0  0  0  0  0  0  0
    0.1900   -0.1139   -0.0058 H   0  0  0  0  0  0  0  0  0  0  0  0
   -1.3005    0.0813   -0.6137 H   0  0  0  0  0  0  0  0  0  0  0  0
   -1.1987    0.3914    1.3919 C   0  0  0  0  0  0  0  0  0  0  0  0
   -2.0927    1.0092    1.4532 H   0  0  0  0  0  0  0  0  0  0  0  0
   -1.4627   -0.6158    1.7295 H   0  0  0  0  0  0  0  0  0  0  0  0
   -0.4803    0.7987    2.1011 H   0  0  0  0  0  0  0  0  0  0  0  0
    2.2066   -0.4258    0.1794 N   0  0  0  0  0  0  0  0  0  0  0  0
    2.5029   -0.1513   -0.7486 H   0  0  0  0  0  0  0  0  0  0  0  0
    2.8302   -1.1735    0.4546 H   0  0  0  0  0  0  0  0  0  0  0  0
    2.3669    0.7094    1.0931 C   0  0  0  0  0  0  0  0  0  0  0  0
    2.0967    0.3947    2.0987 H   0  0  0  0  0  0  0  0  0  0  0  0
    3.3743    1.1312    1.1300 H   0  0  0  0  0  0  0  0  0  0  0  0
    1.6743    1.4952    0.8004 H   0  0  0  0  0  0  0  0  0  0  0  0
  1  4  1  0  0  0  0
  2  1  1  0  0  0  0
  3  1  1  0  0  0  0
  4  5  1  0  0  0  0
  4  6  1  0  0  0  0
  4  7  1  0  0  0  0
  8 10  1  0  0  0  0
  8 11  1  0  0  0  0
  9  8  1  0  0  0  0
 11 13  1  0  0  0  0
 11 12  1  0  0  0  0
 14 11  1  0  0  0  0
M  END
>  <SMILES>
NC.NC

>  <MoleculeName>
MeNH2MeNH2090

>  <Distance Scale>
0.9

>  <Energy Value>
-3.7

$$$$
/home/S66X8/3118_53BenzeneAcNH2NHpi105.xyz
 OpenBabel06262409173D

 21 20  0  0  0  0  0  0  0  0999 V2000
    0.8556    0.3585    1.0498 C   0  0  0  0  0  0  0  0  0  0  0  0
    1.5138    0.9027    1.7128 H   0  0  0  0  0  0  0  0  0  0  0  0
    1.3429   -0.6754    0.2512 C   0  0  0  0  0  0  0  0  0  0  0  0
    2.3929   -0.9333    0.2820 H   0  0  0  0  0  0  0  0  0  0  0  0
    0.4778   -1.3767   -0.5878 C   0  0  0  0  0  0  0  0  0  0  0  0
    0.8561   -2.1789   -1.2068 H   0  0  0  0  0  0  0  0  0  0  0  0
   -0.8748   -1.0426   -0.6305 C   0  0  0  0  0  0  0  0  0  0  0  0
   -1.5454   -1.5857   -1.2824 H   0  0  0  0  0  0  0  0  0  0  0  0
   -1.3624   -0.0070    0.1658 C   0  0  0  0  0  0  0  0  0  0  0  0
   -2.4116    0.2535    0.1308 H   0  0  0  0  0  0  0  0  0  0  0  0
   -0.4984    0.6932    1.0070 C   0  0  0  0  0  0  0  0  0  0  0  0
   -0.8661    1.4903    1.6380 H   0  0  0  0  0  0  0  0  0  0  0  0
    0.0579    0.4213    4.9404 C   0  0  0  0  0  0  0  0  0  0  0  0
    0.3044    1.4648    4.3531 O   0  0  0  0  0  0  0  0  0  0  0  0
   -0.2462   -0.7337    4.2892 N   0  0  0  0  0  0  0  0  0  0  0  0
   -0.2210   -0.7407    3.2826 H   0  0  0  0  0  0  0  0  0  0  0  0
   -0.4019   -1.5892    4.7849 H   0  0  0  0  0  0  0  0  0  0  0  0
    0.0807    0.3264    6.4488 C   0  0  0  0  0  0  0  0  0  0  0  0
    1.1124    0.4106    6.7839 H   0  0  0  0  0  0  0  0  0  0  0  0
   -0.3412   -0.6002    6.8298 H   0  0  0  0  0  0  0  0  0  0  0  0
   -0.4687    1.1703    6.8555 H   0  0  0  0  0  0  0  0  0  0  0  0
  1  2  1  0  0  0  0
  3  4  1  0  0  0  0
  3  1  2  0  0  0  0
  5  3  1  0  0  0  0
  6  5  1  0  0  0  0
  7  5  2  0  0  0  0
  7  9  1  0  0  0  0
  8  7  1  0  0  0  0
  9 11  2  0  0  0  0
 10  9  1  0  0  0  0
 11  1  1  0  0  0  0
 11 12  1  0  0  0  0
 13 18  1  0  0  0  0
 14 13  2  0  0  0  0
 15 17  1  0  0  0  0
 15 13  1  0  0  0  0
 16 15  1  0  0  0  0
 18 19  1  0  0  0  0
 18 20  1  0  0  0  0
 18 21  1  0  0  0  0
M  END
>  <SMILES>
c1ccccc1.C(=O)(N)C

>  <MoleculeName>
BenzeneAcNH2NHpi105

>  <Distance Scale>
1.05

>  <Energy Value>
-4.23

$$$$
/home/S66X8/2984_36NeopentaneNeopentane125.xyz
 OpenBabel06262409173D

 34 32  0  0  0  0  0  0  0  0999 V2000
    0.3825   -0.0706    0.7669 C   0  0  0  0  0  0  0  0  0  0  0  0
   -1.0406    0.3968    1.0609 C   0  0  0  0  0  0  0  0  0  0  0  0
   -1.7716   -0.2815    0.6183 H   0  0  0  0  0  0  0  0  0  0  0  0
   -1.2247    0.4357    2.1355 H   0  0  0  0  0  0  0  0  0  0  0  0
   -1.2141    1.3937    0.6531 H   0  0  0  0  0  0  0  0  0  0  0  0
    0.5908   -1.4668    1.3480 C   0  0  0  0  0  0  0  0  0  0  0  0
    1.6029   -1.8229    1.1501 H   0  0  0  0  0  0  0  0  0  0  0  0
    0.4390   -1.4667    2.4283 H   0  0  0  0  0  0  0  0  0  0  0  0
   -0.1099   -2.1787    0.9093 H   0  0  0  0  0  0  0  0  0  0  0  0
    1.3783    0.8984    1.3991 C   0  0  0  0  0  0  0  0  0  0  0  0
    2.4044    0.5854    1.2007 H   0  0  0  0  0  0  0  0  0  0  0  0
    1.2438    0.9460    2.4807 H   0  0  0  0  0  0  0  0  0  0  0  0
    1.2484    1.9050    0.9990 H   0  0  0  0  0  0  0  0  0  0  0  0
    0.6020   -0.1110   -0.7431 C   0  0  0  0  0  0  0  0  0  0  0  0
    0.4592    0.8770   -1.1829 H   0  0  0  0  0  0  0  0  0  0  0  0
    1.6137   -0.4435   -0.9797 H   0  0  0  0  0  0  0  0  0  0  0  0
   -0.0995   -0.7975   -1.2192 H   0  0  0  0  0  0  0  0  0  0  0  0
   -0.4895    0.0905    6.7522 C   0  0  0  0  0  0  0  0  0  0  0  0
    0.9333   -0.3785    6.4588 C   0  0  0  0  0  0  0  0  0  0  0  0
    1.1178   -0.4178    5.3843 H   0  0  0  0  0  0  0  0  0  0  0  0
    1.6647    0.2992    6.9015 H   0  0  0  0  0  0  0  0  0  0  0  0
    1.1056   -1.3755    6.8669 H   0  0  0  0  0  0  0  0  0  0  0  0
   -0.6959    1.4870    6.1714 C   0  0  0  0  0  0  0  0  0  0  0  0
   -1.7079    1.8440    6.3682 H   0  0  0  0  0  0  0  0  0  0  0  0
    0.0050    2.1981    6.6111 H   0  0  0  0  0  0  0  0  0  0  0  0
   -0.5428    1.4872    5.0912 H   0  0  0  0  0  0  0  0  0  0  0  0
   -0.7098    0.1306    8.2621 C   0  0  0  0  0  0  0  0  0  0  0  0
   -1.7210    0.4649    8.4981 H   0  0  0  0  0  0  0  0  0  0  0  0
   -0.0073    0.8156    8.7389 H   0  0  0  0  0  0  0  0  0  0  0  0
   -0.5692   -0.8579    8.7015 H   0  0  0  0  0  0  0  0  0  0  0  0
   -1.4860   -0.8773    6.1191 C   0  0  0  0  0  0  0  0  0  0  0  0
   -1.3570   -1.8843    6.5186 H   0  0  0  0  0  0  0  0  0  0  0  0
   -2.5119   -0.5635    6.3174 H   0  0  0  0  0  0  0  0  0  0  0  0
   -1.3513   -0.9243    5.0375 H   0  0  0  0  0  0  0  0  0  0  0  0
  1  2  1  0  0  0  0
  1  6  1  0  0  0  0
  1 10  1  0  0  0  0
  2  4  1  0  0  0  0
  3  2  1  0  0  0  0
  5  2  1  0  0  0  0
  6  8  1  0  0  0  0
  7  6  1  0  0  0  0
  9  6  1  0  0  0  0
 10 12  1  0  0  0  0
 11 10  1  0  0  0  0
 13 10  1  0  0  0  0
 14  1  1  0  0  0  0
 15 14  1  0  0  0  0
 16 14  1  0  0  0  0
 17 14  1  0  0  0  0
 18 27  1  0  0  0  0
 19 18  1  0  0  0  0
 19 22  1  0  0  0  0
 19 21  1  0  0  0  0
 20 19  1  0  0  0  0
 23 24  1  0  0  0  0
 23 25  1  0  0  0  0
 23 18  1  0  0  0  0
 26 23  1  0  0  0  0
 27 28  1  0  0  0  0
 27 30  1  0  0  0  0
 27 29  1  0  0  0  0
 31 33  1  0  0  0  0
 31 32  1  0  0  0  0
 31 18  1  0  0  0  0
 34 31  1  0  0  0  0
M  END
>  <SMILES>
C(C)(C)(C)C.C(C)(C)(C)C

>  <MoleculeName>
NeopentaneNeopentane125

>  <Distance Scale>
1.25

>  <Energy Value>
-1.05

$$$$
/home/S66X8/2863_21AcNH2AcNH2110.xyz
 OpenBabel06262409173D

 18 16  0  0  0  0  0  0  0  0999 V2000
   -1.3097    1.1802   -0.0252 C   0  0  0  0  0  0  0  0  0  0  0  0
   -0.7253    2.1551    0.4527 O   0  0  0  0  0  0  0  0  0  0  0  0
   -0.6656    0.0951   -0.4920 N   0  0  0  0  0  0  0  0  0  0  0  0
    0.3546    0.0514   -0.4593 H   0  0  0  0  0  0  0  0  0  0  0  0
   -1.1836   -0.6736   -0.8708 H   0  0  0  0  0  0  0  0  0  0  0  0
   -2.8167    1.1560   -0.1106 C   0  0  0  0  0  0  0  0  0  0  0  0
   -3.2206    1.2625    0.8931 H   0  0  0  0  0  0  0  0  0  0  0  0
   -3.2094    0.2486   -0.5619 H   0  0  0  0  0  0  0  0  0  0  0  0
   -3.1432    2.0166   -0.6889 H   0  0  0  0  0  0  0  0  0  0  0  0
    2.9795    1.0680    0.1468 C   0  0  0  0  0  0  0  0  0  0  0  0
    2.3951    0.0940   -0.3329 O   0  0  0  0  0  0  0  0  0  0  0  0
    2.3354    2.1528    0.6146 N   0  0  0  0  0  0  0  0  0  0  0  0
    1.3153    2.1972    0.5803 H   0  0  0  0  0  0  0  0  0  0  0  0
    2.8534    2.9207    0.9948 H   0  0  0  0  0  0  0  0  0  0  0  0
    4.4865    1.0923    0.2320 C   0  0  0  0  0  0  0  0  0  0  0  0
    4.8783    1.9920    0.6992 H   0  0  0  0  0  0  0  0  0  0  0  0
    4.8900    1.0048   -0.7738 H   0  0  0  0  0  0  0  0  0  0  0  0
    4.8143    0.2217    0.7942 H   0  0  0  0  0  0  0  0  0  0  0  0
  1  2  2  0  0  0  0
  3  4  1  0  0  0  0
  3  1  1  0  0  0  0
  5  3  1  0  0  0  0
  6  1  1  0  0  0  0
  6  7  1  0  0  0  0
  8  6  1  0  0  0  0
  9  6  1  0  0  0  0
 10 15  1  0  0  0  0
 10 12  1  0  0  0  0
 11 10  2  0  0  0  0
 12 14  1  0  0  0  0
 13 12  1  0  0  0  0
 15 16  1  0  0  0  0
 15 18  1  0  0  0  0
 17 15  1  0  0  0  0
M  END
>  <SMILES>
C(=O)(N)C.C(=O)(N)C

>  <MoleculeName>
AcNH2AcNH2110

>  <Distance Scale>
1.1

>  <Energy Value>
-15.26

$$$$
/home/S66X8/3093_50BenzeneEthyneCHpi100.xyz
 OpenBabel06262409173D

 16 15  0  0  0  0  0  0  0  0999 V2000
    0.8366    1.1149    0.2310 C   0  0  0  0  0  0  0  0  0  0  0  0
    1.4855    1.9797    0.2147 H   0  0  0  0  0  0  0  0  0  0  0  0
    1.3842   -0.1670    0.2601 C   0  0  0  0  0  0  0  0  0  0  0  0
    2.4577   -0.2963    0.2661 H   0  0  0  0  0  0  0  0  0  0  0  0
    0.5475   -1.2818    0.2869 C   0  0  0  0  0  0  0  0  0  0  0  0
    0.9719   -2.2760    0.3139 H   0  0  0  0  0  0  0  0  0  0  0  0
   -0.8367   -1.1150    0.2846 C   0  0  0  0  0  0  0  0  0  0  0  0
   -1.4856   -1.9796    0.3097 H   0  0  0  0  0  0  0  0  0  0  0  0
   -1.3842    0.1669    0.2556 C   0  0  0  0  0  0  0  0  0  0  0  0
   -2.4576    0.2965    0.2585 H   0  0  0  0  0  0  0  0  0  0  0  0
   -0.5475    1.2817    0.2290 C   0  0  0  0  0  0  0  0  0  0  0  0
   -0.9721    2.2760    0.2112 H   0  0  0  0  0  0  0  0  0  0  0  0
    0.0058    0.0746    3.7567 C   0  0  0  0  0  0  0  0  0  0  0  0
    0.0028    0.0571    2.6927 H   0  0  0  0  0  0  0  0  0  0  0  0
    0.0095    0.0942    4.9691 C   0  0  0  0  0  0  0  0  0  0  0  0
    0.0126    0.1114    6.0303 H   0  0  0  0  0  0  0  0  0  0  0  0
  1  3  1  0  0  0  0
  2  1  1  0  0  0  0
  3  4  1  0  0  0  0
  3  5  2  0  0  0  0
  5  6  1  0  0  0  0
  7  5  1  0  0  0  0
  7  8  1  0  0  0  0
  9 10  1  0  0  0  0
  9  7  2  0  0  0  0
 11  1  2  0  0  0  0
 11  9  1  0  0  0  0
 12 11  1  0  0  0  0
 13 15  3  0  0  0  0
 14 13  1  0  0  0  0
 15 16  1  0  0  0  0
M  END
>  <SMILES>
c1ccccc1.C#C

>  <MoleculeName>
BenzeneEthyneCHpi100

>  <Distance Scale>
1.0

>  <Energy Value>
-2.86

$$$$
/home/S66X8/3061_46PeptidePentane100.xyz
 OpenBabel06262409173D

 29 27  0  0  0  0  0  0  0  0999 V2000
    1.3722    1.0125    0.9708 C   0  0  0  0  0  0  0  0  0  0  0  0
    0.9522    2.0140    1.0331 H   0  0  0  0  0  0  0  0  0  0  0  0
    1.9474    0.9265    0.0507 H   0  0  0  0  0  0  0  0  0  0  0  0
    2.0517    0.8518    1.8030 H   0  0  0  0  0  0  0  0  0  0  0  0
    0.3267   -0.0776    0.9882 C   0  0  0  0  0  0  0  0  0  0  0  0
    0.6188   -1.2525    1.1713 O   0  0  0  0  0  0  0  0  0  0  0  0
   -0.9500    0.3449    0.7739 N   0  0  0  0  0  0  0  0  0  0  0  0
   -1.1047    1.3220    0.6061 H   0  0  0  0  0  0  0  0  0  0  0  0
   -2.0599   -0.5774    0.6802 C   0  0  0  0  0  0  0  0  0  0  0  0
   -1.6694   -1.5668    0.8972 H   0  0  0  0  0  0  0  0  0  0  0  0
   -2.8346   -0.3314    1.4037 H   0  0  0  0  0  0  0  0  0  0  0  0
   -2.4910   -0.5789   -0.3199 H   0  0  0  0  0  0  0  0  0  0  0  0
    2.6649    0.4657    4.9031 C   0  0  0  0  0  0  0  0  0  0  0  0
    2.7818    1.2201    4.1243 H   0  0  0  0  0  0  0  0  0  0  0  0
    2.5788    0.9906    5.8547 H   0  0  0  0  0  0  0  0  0  0  0  0
    3.5770   -0.1285    4.9299 H   0  0  0  0  0  0  0  0  0  0  0  0
    1.4366   -0.3977    4.6455 C   0  0  0  0  0  0  0  0  0  0  0  0
    1.3421   -1.1431    5.4386 H   0  0  0  0  0  0  0  0  0  0  0  0
    1.5531   -0.9511    3.7117 H   0  0  0  0  0  0  0  0  0  0  0  0
    0.1541    0.4209    4.5802 C   0  0  0  0  0  0  0  0  0  0  0  0
    0.0425    0.9987    5.5033 H   0  0  0  0  0  0  0  0  0  0  0  0
    0.2333    1.1538    3.7706 H   0  0  0  0  0  0  0  0  0  0  0  0
   -1.0903   -0.4294    4.3633 C   0  0  0  0  0  0  0  0  0  0  0  0
   -1.1811   -1.1439    5.1848 H   0  0  0  0  0  0  0  0  0  0  0  0
   -0.9624   -1.0183    3.4531 H   0  0  0  0  0  0  0  0  0  0  0  0
   -2.3571    0.4109    4.2732 C   0  0  0  0  0  0  0  0  0  0  0  0
   -2.2902    1.1180    3.4455 H   0  0  0  0  0  0  0  0  0  0  0  0
   -3.2424   -0.2051    4.1194 H   0  0  0  0  0  0  0  0  0  0  0  0
   -2.5074    0.9871    5.1865 H   0  0  0  0  0  0  0  0  0  0  0  0
  1  5  1  0  0  0  0
  1  2  1  0  0  0  0
  1  4  1  0  0  0  0
  3  1  1  0  0  0  0
  5  6  2  0  0  0  0
  7  5  1  0  0  0  0
  8  7  1  0  0  0  0
  9  7  1  0  0  0  0
  9 10  1  0  0  0  0
  9 11  1  0  0  0  0
 12  9  1  0  0  0  0
 13 16  1  0  0  0  0
 13 15  1  0  0  0  0
 14 13  1  0  0  0  0
 17 13  1  0  0  0  0
 17 18  1  0  0  0  0
 19 17  1  0  0  0  0
 20 17  1  0  0  0  0
 20 21  1  0  0  0  0
 22 20  1  0  0  0  0
 23 20  1  0  0  0  0
 23 24  1  0  0  0  0
 25 23  1  0  0  0  0
 26 23  1  0  0  0  0
 26 29  1  0  0  0  0
 27 26  1  0  0  0  0
 28 26  1  0  0  0  0
M  END
>  <SMILES>
CC(=O)NC.CCCCC

>  <MoleculeName>
PeptidePentane100

>  <Distance Scale>
1.0

>  <Energy Value>
-4.24

$$$$
/home/S66X8/2972_35NeopentanePentane095.xyz
 OpenBabel06262409173D

 34 32  0  0  0  0  0  0  0  0999 V2000
   -2.5304   -0.4176    0.6813 C   0  0  0  0  0  0  0  0  0  0  0  0
   -2.5599   -0.9828   -0.2502 H   0  0  0  0  0  0  0  0  0  0  0  0
   -2.5540   -1.1339    1.5027 H   0  0  0  0  0  0  0  0  0  0  0  0
   -3.4362    0.1841    0.7368 H   0  0  0  0  0  0  0  0  0  0  0  0
   -1.2762    0.4436    0.7500 C   0  0  0  0  0  0  0  0  0  0  0  0
   -1.2781    1.0252    1.6751 H   0  0  0  0  0  0  0  0  0  0  0  0
   -1.2803    1.1686   -0.0672 H   0  0  0  0  0  0  0  0  0  0  0  0
    0.0022   -0.3807    0.6790 C   0  0  0  0  0  0  0  0  0  0  0  0
    0.0078   -1.1114    1.4938 H   0  0  0  0  0  0  0  0  0  0  0  0
    0.0062   -0.9605   -0.2488 H   0  0  0  0  0  0  0  0  0  0  0  0
    1.2683    0.4624    0.7494 C   0  0  0  0  0  0  0  0  0  0  0  0
    1.2620    1.0443    1.6742 H   0  0  0  0  0  0  0  0  0  0  0  0
    1.2616    1.1871   -0.0680 H   0  0  0  0  0  0  0  0  0  0  0  0
    2.5350   -0.3804    0.6807 C   0  0  0  0  0  0  0  0  0  0  0  0
    2.5724   -0.9457   -0.2505 H   0  0  0  0  0  0  0  0  0  0  0  0
    3.4320    0.2344    0.7356 H   0  0  0  0  0  0  0  0  0  0  0  0
    2.5692   -1.0958    1.5025 H   0  0  0  0  0  0  0  0  0  0  0  0
   -0.0005    0.0600    5.1008 C   0  0  0  0  0  0  0  0  0  0  0  0
    0.0006   -0.0802    6.6206 C   0  0  0  0  0  0  0  0  0  0  0  0
   -0.8865    0.3839    7.0539 H   0  0  0  0  0  0  0  0  0  0  0  0
    0.0098   -1.1309    6.9136 H   0  0  0  0  0  0  0  0  0  0  0  0
    0.8792    0.3995    7.0542 H   0  0  0  0  0  0  0  0  0  0  0  0
   -1.2400   -0.6217    4.5269 C   0  0  0  0  0  0  0  0  0  0  0  0
   -1.2633   -0.5327    3.4401 H   0  0  0  0  0  0  0  0  0  0  0  0
   -1.2520   -1.6829    4.7800 H   0  0  0  0  0  0  0  0  0  0  0  0
   -2.1509   -0.1694    4.9220 H   0  0  0  0  0  0  0  0  0  0  0  0
    1.2521   -0.5976    4.5274 C   0  0  0  0  0  0  0  0  0  0  0  0
    1.2734   -0.5093    3.4404 H   0  0  0  0  0  0  0  0  0  0  0  0
    1.2852   -1.6581    4.7815 H   0  0  0  0  0  0  0  0  0  0  0  0
    2.1539   -0.1269    4.9218 H   0  0  0  0  0  0  0  0  0  0  0  0
   -0.0148    1.5398    4.7262 C   0  0  0  0  0  0  0  0  0  0  0  0
    0.8630    2.0504    5.1252 H   0  0  0  0  0  0  0  0  0  0  0  0
   -0.0153    1.6662    3.6426 H   0  0  0  0  0  0  0  0  0  0  0  0
   -0.9029    2.0331    5.1240 H   0  0  0  0  0  0  0  0  0  0  0  0
  1  4  1  0  0  0  0
  1  5  1  0  0  0  0
  1  3  1  0  0  0  0
  2  1  1  0  0  0  0
  5  6  1  0  0  0  0
  7  5  1  0  0  0  0
  8 11  1  0  0  0  0
  8  5  1  0  0  0  0
  8  9  1  0  0  0  0
 10  8  1  0  0  0  0
 11 12  1  0  0  0  0
 13 11  1  0  0  0  0
 14 16  1  0  0  0  0
 14 11  1  0  0  0  0
 14 17  1  0  0  0  0
 15 14  1  0  0  0  0
 18 19  1  0  0  0  0
 19 21  1  0  0  0  0
 19 20  1  0  0  0  0
 19 22  1  0  0  0  0
 23 25  1  0  0  0  0
 23 26  1  0  0  0  0
 23 18  1  0  0  0  0
 24 23  1  0  0  0  0
 27 29  1  0  0  0  0
 27 30  1  0  0  0  0
 27 18  1  0  0  0  0
 28 27  1  0  0  0  0
 31 18  1  0  0  0  0
 31 34  1  0  0  0  0
 31 32  1  0  0  0  0
 33 31  1  0  0  0  0
M  END
>  <SMILES>
CCCCC.C(C)(C)(C)C

>  <MoleculeName>
NeopentanePentane095

>  <Distance Scale>
0.95

>  <Energy Value>
-2.49

$$$$
/home/S66X8/2829_17UracilUracilBP100.xyz
 OpenBabel06262409173D

 24 24  0  0  0  0  0  0  0  0999 V2000
   -0.7300    0.0228    0.0009 N   0  0  0  0  0  0  0  0  0  0  0  0
    0.2984    0.0740    0.0016 H   0  0  0  0  0  0  0  0  0  0  0  0
   -1.2968   -1.2404    0.0015 C   0  0  0  0  0  0  0  0  0  0  0  0
   -0.5941   -2.2535    0.0026 O   0  0  0  0  0  0  0  0  0  0  0  0
   -2.7436   -1.2623    0.0005 C   0  0  0  0  0  0  0  0  0  0  0  0
   -3.2496   -2.2118    0.0008 H   0  0  0  0  0  0  0  0  0  0  0  0
   -3.4220   -0.0959   -0.0009 C   0  0  0  0  0  0  0  0  0  0  0  0
   -4.5009   -0.0492   -0.0017 H   0  0  0  0  0  0  0  0  0  0  0  0
   -2.7748    1.1054   -0.0014 N   0  0  0  0  0  0  0  0  0  0  0  0
   -3.2838    1.9739   -0.0025 H   0  0  0  0  0  0  0  0  0  0  0  0
   -1.3915    1.2370   -0.0005 C   0  0  0  0  0  0  0  0  0  0  0  0
   -0.8398    2.3170   -0.0010 O   0  0  0  0  0  0  0  0  0  0  0  0
    4.1527   -1.0862    0.0005 N   0  0  0  0  0  0  0  0  0  0  0  0
    4.6000   -0.1796    0.0009 H   0  0  0  0  0  0  0  0  0  0  0  0
    5.0088   -2.2008   -0.0010 C   0  0  0  0  0  0  0  0  0  0  0  0
    6.2182   -2.0491   -0.0017 O   0  0  0  0  0  0  0  0  0  0  0  0
    4.2946   -3.4630   -0.0015 C   0  0  0  0  0  0  0  0  0  0  0  0
    4.8611   -4.3780   -0.0026 H   0  0  0  0  0  0  0  0  0  0  0  0
    2.9444   -3.4668   -0.0005 C   0  0  0  0  0  0  0  0  0  0  0  0
    2.3674   -4.3797   -0.0009 H   0  0  0  0  0  0  0  0  0  0  0  0
    2.2064   -2.3159    0.0009 N   0  0  0  0  0  0  0  0  0  0  0  0
    1.1801   -2.3373    0.0016 H   0  0  0  0  0  0  0  0  0  0  0  0
    2.7792   -1.0712    0.0015 C   0  0  0  0  0  0  0  0  0  0  0  0
    2.1288   -0.0300    0.0027 O   0  0  0  0  0  0  0  0  0  0  0  0
  1  3  1  0  0  0  0
  1  2  1  0  0  0  0
  3  4  2  0  0  0  0
  5  6  1  0  0  0  0
  5  3  1  0  0  0  0
  7  5  2  0  0  0  0
  8  7  1  0  0  0  0
  9  7  1  0  0  0  0
  9 11  1  0  0  0  0
 10  9  1  0  0  0  0
 11  1  1  0  0  0  0
 12 11  2  0  0  0  0
 13 14  1  0  0  0  0
 13 23  1  0  0  0  0
 15 13  1  0  0  0  0
 16 15  2  0  0  0  0
 17 15  1  0  0  0  0
 17 19  2  0  0  0  0
 18 17  1  0  0  0  0
 19 21  1  0  0  0  0
 20 19  1  0  0  0  0
 21 23  1  0  0  0  0
 21 22  1  0  0  0  0
 23 24  2  0  0  0  0
M  END
>  <SMILES>
[nH]1c(=O)cc[nH]c1=O.[nH]1c(=O)cc[nH]c1=O

>  <MoleculeName>
UracilUracilBP100

>  <Distance Scale>
1.0

>  <Energy Value>
-17.18

$$$$
/home/S66X8/2719_03WaterMeNH2110.xyz
 OpenBabel06262409173D

 10  8  0  0  0  0  0  0  0  0999 V2000
   -0.6875   -0.1117   -0.0196 O   0  0  0  0  0  0  0  0  0  0  0  0
   -1.0461    0.7759    0.0127 H   0  0  0  0  0  0  0  0  0  0  0  0
    0.2740    0.0259   -0.0035 H   0  0  0  0  0  0  0  0  0  0  0  0
    2.4856    0.1131    0.0071 N   0  0  0  0  0  0  0  0  0  0  0  0
    2.7809   -0.4395   -0.7877 H   0  0  0  0  0  0  0  0  0  0  0  0
    2.7956   -0.3976    0.8239 H   0  0  0  0  0  0  0  0  0  0  0  0
    3.1449    1.4215   -0.0332 C   0  0  0  0  0  0  0  0  0  0  0  0
    2.8343    2.0032    0.8313 H   0  0  0  0  0  0  0  0  0  0  0  0
    4.2362    1.3822   -0.0421 H   0  0  0  0  0  0  0  0  0  0  0  0
    2.8182    1.9574   -0.9210 H   0  0  0  0  0  0  0  0  0  0  0  0
  1  3  1  0  0  0  0
  1  2  1  0  0  0  0
  4  6  1  0  0  0  0
  5  4  1  0  0  0  0
  7  4  1  0  0  0  0
  7  8  1  0  0  0  0
  9  7  1  0  0  0  0
 10  7  1  0  0  0  0
M  END
>  <SMILES>
O.NC

>  <MoleculeName>
WaterMeNH2110

>  <Distance Scale>
1.1

>  <Energy Value>
-6.28

$$$$
/home/S66X8/2709_02WaterMeOH100.xyz
 OpenBabel06262409173D

  9  7  0  0  0  0  0  0  0  0999 V2000
   -0.5253   -0.0510   -0.3145 O   0  0  0  0  0  0  0  0  0  0  0  0
   -0.9420    0.7479    0.0113 H   0  0  0  0  0  0  0  0  0  0  0  0
    0.4037    0.0598   -0.0736 H   0  0  0  0  0  0  0  0  0  0  0  0
    2.3603    0.0452    0.0752 O   0  0  0  0  0  0  0  0  0  0  0  0
    2.7283   -0.5269    0.7527 H   0  0  0  0  0  0  0  0  0  0  0  0
    2.8253   -0.4265   -1.1870 C   0  0  0  0  0  0  0  0  0  0  0  0
    2.3945    0.2246   -1.9401 H   0  0  0  0  0  0  0  0  0  0  0  0
    3.9113   -0.3757   -1.2613 H   0  0  0  0  0  0  0  0  0  0  0  0
    2.4970   -1.4463   -1.3861 H   0  0  0  0  0  0  0  0  0  0  0  0
  1  3  1  0  0  0  0
  1  2  1  0  0  0  0
  4  5  1  0  0  0  0
  6  4  1  0  0  0  0
  7  6  1  0  0  0  0
  8  6  1  0  0  0  0
  9  6  1  0  0  0  0
M  END
>  <SMILES>
O.OC

>  <MoleculeName>
WaterMeOH100

>  <Distance Scale>
1.0

>  <Energy Value>
-5.57

$$$$
/home/S66X8/3007_39BenzeneCyclopentane110.xyz
 OpenBabel06262409173D

 27 27  0  0  0  0  0  0  0  0999 V2000
    0.7655    0.8682    0.8210 C   0  0  0  0  0  0  0  0  0  0  0  0
    1.4375    1.6800    1.0651 H   0  0  0  0  0  0  0  0  0  0  0  0
    1.2377   -0.4428    0.7939 C   0  0  0  0  0  0  0  0  0  0  0  0
    2.2758   -0.6485    1.0177 H   0  0  0  0  0  0  0  0  0  0  0  0
    0.3722   -1.4885    0.4773 C   0  0  0  0  0  0  0  0  0  0  0  0
    0.7382   -2.5061    0.4571 H   0  0  0  0  0  0  0  0  0  0  0  0
   -0.9649   -1.2230    0.1869 C   0  0  0  0  0  0  0  0  0  0  0  0
   -1.6365   -2.0346   -0.0578 H   0  0  0  0  0  0  0  0  0  0  0  0
   -1.4371    0.0884    0.2133 C   0  0  0  0  0  0  0  0  0  0  0  0
   -2.4747    0.2943   -0.0115 H   0  0  0  0  0  0  0  0  0  0  0  0
   -0.5719    1.1340    0.5308 C   0  0  0  0  0  0  0  0  0  0  0  0
   -0.9377    2.1517    0.5511 H   0  0  0  0  0  0  0  0  0  0  0  0
   -0.7500   -0.7030    4.3564 C   0  0  0  0  0  0  0  0  0  0  0  0
   -0.8563   -0.5281    3.2841 H   0  0  0  0  0  0  0  0  0  0  0  0
   -1.4017   -1.5323    4.6296 H   0  0  0  0  0  0  0  0  0  0  0  0
    0.7195   -0.9601    4.7005 C   0  0  0  0  0  0  0  0  0  0  0  0
    1.2147   -1.5977    3.9700 H   0  0  0  0  0  0  0  0  0  0  0  0
    0.7828   -1.4603    5.6680 H   0  0  0  0  0  0  0  0  0  0  0  0
    1.3596    0.4453    4.7915 C   0  0  0  0  0  0  0  0  0  0  0  0
    2.0099    0.6380    3.9396 H   0  0  0  0  0  0  0  0  0  0  0  0
    1.9725    0.5345    5.6872 H   0  0  0  0  0  0  0  0  0  0  0  0
    0.1806    1.4445    4.8184 C   0  0  0  0  0  0  0  0  0  0  0  0
    0.0634    1.9034    3.8361 H   0  0  0  0  0  0  0  0  0  0  0  0
    0.3262    2.2460    5.5408 H   0  0  0  0  0  0  0  0  0  0  0  0
   -1.0532    0.5874    5.1140 C   0  0  0  0  0  0  0  0  0  0  0  0
   -1.9842    1.0631    4.8081 H   0  0  0  0  0  0  0  0  0  0  0  0
   -1.1186    0.3781    6.1846 H   0  0  0  0  0  0  0  0  0  0  0  0
  1  2  1  0  0  0  0
  3  1  1  0  0  0  0
  3  4  1  0  0  0  0
  5  3  2  0  0  0  0
  6  5  1  0  0  0  0
  7  9  2  0  0  0  0
  7  5  1  0  0  0  0
  8  7  1  0  0  0  0
  9 11  1  0  0  0  0
 10  9  1  0  0  0  0
 11 12  1  0  0  0  0
 11  1  2  0  0  0  0
 13 15  1  0  0  0  0
 13 16  1  0  0  0  0
 13 25  1  0  0  0  0
 14 13  1  0  0  0  0
 16 19  1  0  0  0  0
 16 18  1  0  0  0  0
 17 16  1  0  0  0  0
 19 22  1  0  0  0  0
 19 21  1  0  0  0  0
 20 19  1  0  0  0  0
 22 25  1  0  0  0  0
 22 24  1  0  0  0  0
 23 22  1  0  0  0  0
 25 27  1  0  0  0  0
 26 25  1  0  0  0  0
M  END
>  <SMILES>
c1ccccc1.C1CCCC1

>  <MoleculeName>
BenzeneCyclopentane110

>  <Distance Scale>
1.1

>  <Energy Value>
-3.17

$$$$
/home/S66X8/3208_64PeptideEthene125.xyz
 OpenBabel06262409173D

 18 16  0  0  0  0  0  0  0  0999 V2000
    1.6297    0.5030    0.2701 C   0  0  0  0  0  0  0  0  0  0  0  0
    1.6416    1.4592   -0.2481 H   0  0  0  0  0  0  0  0  0  0  0  0
    2.3153   -0.1836   -0.2176 H   0  0  0  0  0  0  0  0  0  0  0  0
    1.9697    0.6494    1.2940 H   0  0  0  0  0  0  0  0  0  0  0  0
    0.2618   -0.1329    0.3146 C   0  0  0  0  0  0  0  0  0  0  0  0
    0.0993   -1.3096    0.6118 O   0  0  0  0  0  0  0  0  0  0  0  0
   -0.7735    0.7025    0.0221 N   0  0  0  0  0  0  0  0  0  0  0  0
   -0.5690    1.6666   -0.1658 H   0  0  0  0  0  0  0  0  0  0  0  0
   -2.1500    0.2660    0.0951 C   0  0  0  0  0  0  0  0  0  0  0  0
   -2.1447   -0.8194    0.1009 H   0  0  0  0  0  0  0  0  0  0  0  0
   -2.6405    0.6158    1.0036 H   0  0  0  0  0  0  0  0  0  0  0  0
   -2.7077    0.6208   -0.7683 H   0  0  0  0  0  0  0  0  0  0  0  0
    0.0571    0.5116    4.4567 C   0  0  0  0  0  0  0  0  0  0  0  0
    0.0523    1.2538    5.2426 H   0  0  0  0  0  0  0  0  0  0  0  0
   -0.5914    0.6794    3.6080 H   0  0  0  0  0  0  0  0  0  0  0  0
    0.8257   -0.5753    4.5265 C   0  0  0  0  0  0  0  0  0  0  0  0
    1.4710   -0.7471    5.3766 H   0  0  0  0  0  0  0  0  0  0  0  0
    0.8205   -1.3105    3.7342 H   0  0  0  0  0  0  0  0  0  0  0  0
  1  5  1  0  0  0  0
  1  4  1  0  0  0  0
  2  1  1  0  0  0  0
  3  1  1  0  0  0  0
  5  6  2  0  0  0  0
  7  9  1  0  0  0  0
  7  5  1  0  0  0  0
  8  7  1  0  0  0  0
  9 10  1  0  0  0  0
  9 11  1  0  0  0  0
 12  9  1  0  0  0  0
 13 16  2  0  0  0  0
 13 14  1  0  0  0  0
 15 13  1  0  0  0  0
 16 17  1  0  0  0  0
 18 16  1  0  0  0  0
M  END
>  <SMILES>
CC(=O)NC.C=C

>  <MoleculeName>
PeptideEthene125

>  <Distance Scale>
1.25

>  <Energy Value>
-1.86

$$$$
/home/S66X8/2752_07MeOHPeptide125.xyz
 OpenBabel06262409173D

 18 16  0  0  0  0  0  0  0  0999 V2000
   -0.2088   -0.2169   -1.0324 O   0  0  0  0  0  0  0  0  0  0  0  0
    0.7111   -0.3869   -0.7740 H   0  0  0  0  0  0  0  0  0  0  0  0
   -1.0222   -0.7412   -0.0055 C   0  0  0  0  0  0  0  0  0  0  0  0
   -2.0575   -0.5387   -0.2686 H   0  0  0  0  0  0  0  0  0  0  0  0
   -0.9077   -1.8218    0.1085 H   0  0  0  0  0  0  0  0  0  0  0  0
   -0.8246   -0.2755    0.9646 H   0  0  0  0  0  0  0  0  0  0  0  0
    2.4425    1.9073    0.5942 C   0  0  0  0  0  0  0  0  0  0  0  0
    2.9489    2.8688    0.5593 H   0  0  0  0  0  0  0  0  0  0  0  0
    2.0319    1.7612    1.5920 H   0  0  0  0  0  0  0  0  0  0  0  0
    1.6128    1.8978   -0.1074 H   0  0  0  0  0  0  0  0  0  0  0  0
    3.3581    0.7524    0.2782 C   0  0  0  0  0  0  0  0  0  0  0  0
    2.9339   -0.3675   -0.0068 O   0  0  0  0  0  0  0  0  0  0  0  0
    4.6842    1.0141    0.3374 N   0  0  0  0  0  0  0  0  0  0  0  0
    4.9822    1.9245    0.6351 H   0  0  0  0  0  0  0  0  0  0  0  0
    5.6666   -0.0260    0.1147 C   0  0  0  0  0  0  0  0  0  0  0  0
    5.3101   -0.6770   -0.6775 H   0  0  0  0  0  0  0  0  0  0  0  0
    6.6070    0.4275   -0.1838 H   0  0  0  0  0  0  0  0  0  0  0  0
    5.8261   -0.6305    1.0068 H   0  0  0  0  0  0  0  0  0  0  0  0
  1  2  1  0  0  0  0
  1  3  1  0  0  0  0
  3  5  1  0  0  0  0
  3  6  1  0  0  0  0
  4  3  1  0  0  0  0
  7  9  1  0  0  0  0
  8  7  1  0  0  0  0
 10  7  1  0  0  0  0
 11 13  1  0  0  0  0
 11  7  1  0  0  0  0
 12 11  2  0  0  0  0
 13 14  1  0  0  0  0
 15 13  1  0  0  0  0
 15 18  1  0  0  0  0
 16 15  1  0  0  0  0
 17 15  1  0  0  0  0
M  END
>  <SMILES>
OC.CC(=O)NC

>  <MoleculeName>
MeOHPeptide125

>  <Distance Scale>
1.25

>  <Energy Value>
-6.18

$$$$
/home/S66X8/3128_54BenzeneWaterOHpi125.xyz
 OpenBabel06262409173D

 15 14  0  0  0  0  0  0  0  0999 V2000
    0.7801   -0.6099   -1.2076 C   0  0  0  0  0  0  0  0  0  0  0  0
    0.8962   -1.1376   -2.1441 H   0  0  0  0  0  0  0  0  0  0  0  0
    0.4779    0.7510   -1.2079 C   0  0  0  0  0  0  0  0  0  0  0  0
    0.3570    1.2782   -2.1441 H   0  0  0  0  0  0  0  0  0  0  0  0
    0.3273    1.4319   -0.0000 C   0  0  0  0  0  0  0  0  0  0  0  0
    0.0915    2.4871    0.0000 H   0  0  0  0  0  0  0  0  0  0  0  0
    0.4779    0.7510    1.2079 C   0  0  0  0  0  0  0  0  0  0  0  0
    0.3570    1.2782    2.1441 H   0  0  0  0  0  0  0  0  0  0  0  0
    0.7801   -0.6099    1.2076 C   0  0  0  0  0  0  0  0  0  0  0  0
    0.8962   -1.1376    2.1441 H   0  0  0  0  0  0  0  0  0  0  0  0
    0.9316   -1.2900    0.0000 C   0  0  0  0  0  0  0  0  0  0  0  0
    1.1685   -2.3452   -0.0000 H   0  0  0  0  0  0  0  0  0  0  0  0
   -3.4813   -0.3520   -0.0000 O   0  0  0  0  0  0  0  0  0  0  0  0
   -3.3165   -1.2968   -0.0000 H   0  0  0  0  0  0  0  0  0  0  0  0
   -2.5940    0.0196   -0.0000 H   0  0  0  0  0  0  0  0  0  0  0  0
  1 11  1  0  0  0  0
  2  1  1  0  0  0  0
  3  1  2  0  0  0  0
  3  5  1  0  0  0  0
  4  3  1  0  0  0  0
  5  6  1  0  0  0  0
  5  7  2  0  0  0  0
  7  8  1  0  0  0  0
  9  7  1  0  0  0  0
  9 10  1  0  0  0  0
 11 12  1  0  0  0  0
 11  9  2  0  0  0  0
 13 14  1  0  0  0  0
 13 15  1  0  0  0  0
M  END
>  <SMILES>
c1ccccc1.O

>  <MoleculeName>
BenzeneWaterOHpi125

>  <Distance Scale>
1.25

>  <Energy Value>
-2.1

$$$$
/home/S66X8/3059_46PeptidePentane090.xyz
 OpenBabel06262409173D

 29 27  0  0  0  0  0  0  0  0999 V2000
    1.3722    1.0125    0.9708 C   0  0  0  0  0  0  0  0  0  0  0  0
    0.9522    2.0140    1.0331 H   0  0  0  0  0  0  0  0  0  0  0  0
    1.9474    0.9265    0.0507 H   0  0  0  0  0  0  0  0  0  0  0  0
    2.0517    0.8518    1.8030 H   0  0  0  0  0  0  0  0  0  0  0  0
    0.3267   -0.0776    0.9882 C   0  0  0  0  0  0  0  0  0  0  0  0
    0.6188   -1.2525    1.1713 O   0  0  0  0  0  0  0  0  0  0  0  0
   -0.9500    0.3449    0.7739 N   0  0  0  0  0  0  0  0  0  0  0  0
   -1.1047    1.3220    0.6061 H   0  0  0  0  0  0  0  0  0  0  0  0
   -2.0599   -0.5774    0.6802 C   0  0  0  0  0  0  0  0  0  0  0  0
   -1.6694   -1.5668    0.8972 H   0  0  0  0  0  0  0  0  0  0  0  0
   -2.8346   -0.3314    1.4037 H   0  0  0  0  0  0  0  0  0  0  0  0
   -2.4910   -0.5789   -0.3199 H   0  0  0  0  0  0  0  0  0  0  0  0
    2.6434    0.4506    4.6506 C   0  0  0  0  0  0  0  0  0  0  0  0
    2.7602    1.2050    3.8718 H   0  0  0  0  0  0  0  0  0  0  0  0
    2.5572    0.9755    5.6022 H   0  0  0  0  0  0  0  0  0  0  0  0
    3.5554   -0.1436    4.6774 H   0  0  0  0  0  0  0  0  0  0  0  0
    1.4151   -0.4128    4.3930 C   0  0  0  0  0  0  0  0  0  0  0  0
    1.3205   -1.1582    5.1861 H   0  0  0  0  0  0  0  0  0  0  0  0
    1.5315   -0.9662    3.4592 H   0  0  0  0  0  0  0  0  0  0  0  0
    0.1325    0.4059    4.3277 C   0  0  0  0  0  0  0  0  0  0  0  0
    0.0210    0.9836    5.2508 H   0  0  0  0  0  0  0  0  0  0  0  0
    0.2118    1.1387    3.5181 H   0  0  0  0  0  0  0  0  0  0  0  0
   -1.1118   -0.4445    4.1108 C   0  0  0  0  0  0  0  0  0  0  0  0
   -1.2026   -1.1590    4.9323 H   0  0  0  0  0  0  0  0  0  0  0  0
   -0.9840   -1.0334    3.2006 H   0  0  0  0  0  0  0  0  0  0  0  0
   -2.3786    0.3958    4.0207 C   0  0  0  0  0  0  0  0  0  0  0  0
   -2.3117    1.1029    3.1930 H   0  0  0  0  0  0  0  0  0  0  0  0
   -3.2640   -0.2202    3.8669 H   0  0  0  0  0  0  0  0  0  0  0  0
   -2.5290    0.9720    4.9339 H   0  0  0  0  0  0  0  0  0  0  0  0
  1  5  1  0  0  0  0
  1  2  1  0  0  0  0
  1  4  1  0  0  0  0
  3  1  1  0  0  0  0
  5  6  2  0  0  0  0
  7  5  1  0  0  0  0
  8  7  1  0  0  0  0
  9  7  1  0  0  0  0
  9 10  1  0  0  0  0
  9 11  1  0  0  0  0
 12  9  1  0  0  0  0
 13 16  1  0  0  0  0
 13 15  1  0  0  0  0
 14 13  1  0  0  0  0
 17 13  1  0  0  0  0
 17 18  1  0  0  0  0
 19 17  1  0  0  0  0
 20 17  1  0  0  0  0
 20 21  1  0  0  0  0
 22 20  1  0  0  0  0
 23 20  1  0  0  0  0
 23 24  1  0  0  0  0
 25 23  1  0  0  0  0
 26 23  1  0  0  0  0
 26 29  1  0  0  0  0
 27 26  1  0  0  0  0
 28 26  1  0  0  0  0
M  END
>  <SMILES>
CC(=O)NC.CCCCC

>  <MoleculeName>
PeptidePentane090

>  <Distance Scale>
0.9

>  <Energy Value>
-3.75

$$$$
/home/S66X8/2758_08MeOHWater105.xyz
 OpenBabel06262409173D

  9  7  0  0  0  0  0  0  0  0999 V2000
   -0.7866    0.0452   -0.0072 O   0  0  0  0  0  0  0  0  0  0  0  0
    0.1777    0.0127   -0.0068 H   0  0  0  0  0  0  0  0  0  0  0  0
   -1.2480   -1.2903    0.0011 C   0  0  0  0  0  0  0  0  0  0  0  0
   -2.3343   -1.2589    0.0002 H   0  0  0  0  0  0  0  0  0  0  0  0
   -0.9260   -1.8498   -0.8804 H   0  0  0  0  0  0  0  0  0  0  0  0
   -0.9270   -1.8385    0.8901 H   0  0  0  0  0  0  0  0  0  0  0  0
    2.2612   -0.0557   -0.0046 O   0  0  0  0  0  0  0  0  0  0  0  0
    2.7004    0.3325   -0.7645 H   0  0  0  0  0  0  0  0  0  0  0  0
    2.6990    0.3469    0.7485 H   0  0  0  0  0  0  0  0  0  0  0  0
  1  2  1  0  0  0  0
  1  3  1  0  0  0  0
  3  6  1  0  0  0  0
  4  3  1  0  0  0  0
  5  3  1  0  0  0  0
  7  9  1  0  0  0  0
  8  7  1  0  0  0  0
M  END
>  <SMILES>
OC.O

>  <MoleculeName>
MeOHWater105

>  <Distance Scale>
1.05

>  <Energy Value>
-4.85

$$$$
/home/S66X8/3047_44EthenePentane110.xyz
 OpenBabel06262409173D

 23 21  0  0  0  0  0  0  0  0999 V2000
    0.6664    0.1838    0.4197 C   0  0  0  0  0  0  0  0  0  0  0  0
    1.2289   -0.3299    1.1863 H   0  0  0  0  0  0  0  0  0  0  0  0
    1.2280    0.6972   -0.3476 H   0  0  0  0  0  0  0  0  0  0  0  0
   -0.6660    0.1830    0.4196 C   0  0  0  0  0  0  0  0  0  0  0  0
   -1.2279   -0.3315    1.1861 H   0  0  0  0  0  0  0  0  0  0  0  0
   -1.2282    0.6956   -0.3477 H   0  0  0  0  0  0  0  0  0  0  0  0
   -2.5328   -0.4171    4.5066 C   0  0  0  0  0  0  0  0  0  0  0  0
   -2.5623   -1.0302    3.6054 H   0  0  0  0  0  0  0  0  0  0  0  0
   -2.5689   -1.0914    5.3623 H   0  0  0  0  0  0  0  0  0  0  0  0
   -3.4340    0.1939    4.5239 H   0  0  0  0  0  0  0  0  0  0  0  0
   -1.2714    0.4355    4.5425 C   0  0  0  0  0  0  0  0  0  0  0  0
   -1.2718    1.0556    5.4419 H   0  0  0  0  0  0  0  0  0  0  0  0
   -1.2630    1.1224    3.6934 H   0  0  0  0  0  0  0  0  0  0  0  0
   -0.0001   -0.4020    4.5155 C   0  0  0  0  0  0  0  0  0  0  0  0
   -0.0002   -1.0887    5.3673 H   0  0  0  0  0  0  0  0  0  0  0  0
    0.0001   -1.0296    3.6189 H   0  0  0  0  0  0  0  0  0  0  0  0
    1.2711    0.4356    4.5429 C   0  0  0  0  0  0  0  0  0  0  0  0
    1.2714    1.0554    5.4424 H   0  0  0  0  0  0  0  0  0  0  0  0
    1.2629    1.1226    3.6940 H   0  0  0  0  0  0  0  0  0  0  0  0
    2.5326   -0.4172    4.5071 C   0  0  0  0  0  0  0  0  0  0  0  0
    2.5622   -1.0300    3.6058 H   0  0  0  0  0  0  0  0  0  0  0  0
    3.4338    0.1938    4.5247 H   0  0  0  0  0  0  0  0  0  0  0  0
    2.5685   -1.0916    5.3626 H   0  0  0  0  0  0  0  0  0  0  0  0
  1  2  1  0  0  0  0
  3  1  1  0  0  0  0
  4  1  2  0  0  0  0
  4  5  1  0  0  0  0
  6  4  1  0  0  0  0
  7 10  1  0  0  0  0
  7 11  1  0  0  0  0
  7  9  1  0  0  0  0
  8  7  1  0  0  0  0
 11 12  1  0  0  0  0
 13 11  1  0  0  0  0
 14 11  1  0  0  0  0
 14 17  1  0  0  0  0
 14 15  1  0  0  0  0
 16 14  1  0  0  0  0
 17 18  1  0  0  0  0
 19 17  1  0  0  0  0
 20 22  1  0  0  0  0
 20 17  1  0  0  0  0
 20 23  1  0  0  0  0
 21 20  1  0  0  0  0
M  END
>  <SMILES>
C=C.CCCCC

>  <MoleculeName>
EthenePentane110

>  <Distance Scale>
1.1

>  <Energy Value>
-1.67

$$$$
/home/S66X8/2777_10MeNH2MeNH2150.xyz
 OpenBabel06262409173D

 14 12  0  0  0  0  0  0  0  0999 V2000
   -0.6386    0.4709    0.0446 N   0  0  0  0  0  0  0  0  0  0  0  0
    0.1900   -0.1139   -0.0058 H   0  0  0  0  0  0  0  0  0  0  0  0
   -1.3005    0.0813   -0.6137 H   0  0  0  0  0  0  0  0  0  0  0  0
   -1.1987    0.3914    1.3919 C   0  0  0  0  0  0  0  0  0  0  0  0
   -2.0927    1.0092    1.4532 H   0  0  0  0  0  0  0  0  0  0  0  0
   -1.4627   -0.6158    1.7295 H   0  0  0  0  0  0  0  0  0  0  0  0
   -0.4803    0.7987    2.1011 H   0  0  0  0  0  0  0  0  0  0  0  0
    3.7010   -0.6569    0.3166 N   0  0  0  0  0  0  0  0  0  0  0  0
    3.9973   -0.3823   -0.6114 H   0  0  0  0  0  0  0  0  0  0  0  0
    4.3246   -1.4046    0.5918 H   0  0  0  0  0  0  0  0  0  0  0  0
    3.8613    0.4783    1.2303 C   0  0  0  0  0  0  0  0  0  0  0  0
    3.5911    0.1636    2.2359 H   0  0  0  0  0  0  0  0  0  0  0  0
    4.8687    0.9001    1.2673 H   0  0  0  0  0  0  0  0  0  0  0  0
    3.1687    1.2641    0.9376 H   0  0  0  0  0  0  0  0  0  0  0  0
  1  4  1  0  0  0  0
  2  1  1  0  0  0  0
  3  1  1  0  0  0  0
  4  5  1  0  0  0  0
  4  6  1  0  0  0  0
  4  7  1  0  0  0  0
  8 10  1  0  0  0  0
  8 11  1  0  0  0  0
  9  8  1  0  0  0  0
 11 13  1  0  0  0  0
 11 12  1  0  0  0  0
 14 11  1  0  0  0  0
M  END
>  <SMILES>
NC.NC

>  <MoleculeName>
MeNH2MeNH2150

>  <Distance Scale>
1.5

>  <Energy Value>
-1.31

$$$$
/home/S66X8/3173_60EthyneAcOHOHpi100.xyz
 OpenBabel06262409173D

 12 10  0  0  0  0  0  0  0  0999 V2000
   -0.6106    0.2275   -0.1706 C   0  0  0  0  0  0  0  0  0  0  0  0
    0.1074    0.8614   -0.6342 H   0  0  0  0  0  0  0  0  0  0  0  0
   -1.3863   -0.5253    0.3800 C   0  0  0  0  0  0  0  0  0  0  0  0
   -2.0807   -1.1741    0.8544 H   0  0  0  0  0  0  0  0  0  0  0  0
    2.8615   -0.6535    0.4748 C   0  0  0  0  0  0  0  0  0  0  0  0
    2.6073    0.3026   -0.2241 O   0  0  0  0  0  0  0  0  0  0  0  0
    1.9136   -1.4278    1.0425 O   0  0  0  0  0  0  0  0  0  0  0  0
    1.0526   -1.0605    0.7747 H   0  0  0  0  0  0  0  0  0  0  0  0
    4.2372   -1.1349    0.8249 C   0  0  0  0  0  0  0  0  0  0  0  0
    4.9755   -0.4974    0.3541 H   0  0  0  0  0  0  0  0  0  0  0  0
    4.3634   -1.1231    1.9050 H   0  0  0  0  0  0  0  0  0  0  0  0
    4.3594   -2.1628    0.4917 H   0  0  0  0  0  0  0  0  0  0  0  0
  1  3  3  0  0  0  0
  2  1  1  0  0  0  0
  3  4  1  0  0  0  0
  5  9  1  0  0  0  0
  5  7  1  0  0  0  0
  6  5  2  0  0  0  0
  8  7  1  0  0  0  0
  9 11  1  0  0  0  0
 10  9  1  0  0  0  0
 12  9  1  0  0  0  0
M  END
>  <SMILES>
C#C.C(=O)(O)C

>  <MoleculeName>
EthyneAcOHOHpi100

>  <Distance Scale>
1.0

>  <Energy Value>
-4.86

$$$$
/home/S66X8/3070_47BenzeneBenzeneTS105.xyz
 OpenBabel06262409173D

 24 24  0  0  0  0  0  0  0  0999 V2000
    0.7292    1.1131    0.3267 C   0  0  0  0  0  0  0  0  0  0  0  0
    1.3032    2.0142    0.1592 H   0  0  0  0  0  0  0  0  0  0  0  0
    1.3751   -0.1194    0.4128 C   0  0  0  0  0  0  0  0  0  0  0  0
    2.4505   -0.1746    0.3133 H   0  0  0  0  0  0  0  0  0  0  0  0
    0.6350   -1.2806    0.6294 C   0  0  0  0  0  0  0  0  0  0  0  0
    1.1363   -2.2360    0.7002 H   0  0  0  0  0  0  0  0  0  0  0  0
   -0.7510   -1.2097    0.7579 C   0  0  0  0  0  0  0  0  0  0  0  0
   -1.3245   -2.1114    0.9242 H   0  0  0  0  0  0  0  0  0  0  0  0
   -1.3970    0.0227    0.6731 C   0  0  0  0  0  0  0  0  0  0  0  0
   -2.4724    0.0785    0.7740 H   0  0  0  0  0  0  0  0  0  0  0  0
   -0.6569    1.1843    0.4583 C   0  0  0  0  0  0  0  0  0  0  0  0
   -1.1578    2.1406    0.3951 H   0  0  0  0  0  0  0  0  0  0  0  0
    0.1716    0.1726    4.2010 C   0  0  0  0  0  0  0  0  0  0  0  0
    0.2937    0.3981    3.1506 H   0  0  0  0  0  0  0  0  0  0  0  0
   -0.9195   -0.5823    4.6283 C   0  0  0  0  0  0  0  0  0  0  0  0
   -1.6400   -0.9388    3.9046 H   0  0  0  0  0  0  0  0  0  0  0  0
   -1.0802   -0.8764    5.9813 C   0  0  0  0  0  0  0  0  0  0  0  0
   -1.9273   -1.4624    6.3115 H   0  0  0  0  0  0  0  0  0  0  0  0
   -0.1483   -0.4154    6.9098 C   0  0  0  0  0  0  0  0  0  0  0  0
   -0.2722   -0.6433    7.9598 H   0  0  0  0  0  0  0  0  0  0  0  0
    0.9432    0.3397    6.4845 C   0  0  0  0  0  0  0  0  0  0  0  0
    1.6664    0.6976    7.2049 H   0  0  0  0  0  0  0  0  0  0  0  0
    1.1020    0.6332    5.1311 C   0  0  0  0  0  0  0  0  0  0  0  0
    1.9493    1.2193    4.8010 H   0  0  0  0  0  0  0  0  0  0  0  0
  1  3  2  0  0  0  0
  1 11  1  0  0  0  0
  2  1  1  0  0  0  0
  3  5  1  0  0  0  0
  4  3  1  0  0  0  0
  5  6  1  0  0  0  0
  5  7  2  0  0  0  0
  7  8  1  0  0  0  0
  9  7  1  0  0  0  0
  9 10  1  0  0  0  0
 11  9  2  0  0  0  0
 12 11  1  0  0  0  0
 13 15  2  0  0  0  0
 13 23  1  0  0  0  0
 14 13  1  0  0  0  0
 15 17  1  0  0  0  0
 16 15  1  0  0  0  0
 17 18  1  0  0  0  0
 17 19  2  0  0  0  0
 19 20  1  0  0  0  0
 21 19  1  0  0  0  0
 21 22  1  0  0  0  0
 23 21  2  0  0  0  0
 24 23  1  0  0  0  0
M  END
>  <SMILES>
c1ccccc1.c1ccccc1

>  <MoleculeName>
BenzeneBenzeneTS105

>  <Distance Scale>
1.05

>  <Energy Value>
-2.82

$$$$
/home/S66X8/2841_18WaterPyridine150.xyz
 OpenBabel06262409173D

 14 13  0  0  0  0  0  0  0  0999 V2000
   -0.5528   -0.1017   -0.0005 O   0  0  0  0  0  0  0  0  0  0  0  0
   -0.8718    0.8018    0.0001 H   0  0  0  0  0  0  0  0  0  0  0  0
    0.4127   -0.0018   -0.0003 H   0  0  0  0  0  0  0  0  0  0  0  0
    3.4022    0.1490    0.0004 N   0  0  0  0  0  0  0  0  0  0  0  0
    4.0981    0.1150    1.1451 C   0  0  0  0  0  0  0  0  0  0  0  0
    3.5135    0.1386    2.0560 H   0  0  0  0  0  0  0  0  0  0  0  0
    5.4872    0.0499    1.1951 C   0  0  0  0  0  0  0  0  0  0  0  0
    5.9931    0.0250    2.1494 H   0  0  0  0  0  0  0  0  0  0  0  0
    6.1983    0.0167    0.0002 C   0  0  0  0  0  0  0  0  0  0  0  0
    7.2782   -0.0350    0.0001 H   0  0  0  0  0  0  0  0  0  0  0  0
    5.4870    0.0498   -1.1946 C   0  0  0  0  0  0  0  0  0  0  0  0
    5.9928    0.0249   -2.1490 H   0  0  0  0  0  0  0  0  0  0  0  0
    4.0980    0.1150   -1.1445 C   0  0  0  0  0  0  0  0  0  0  0  0
    3.5132    0.1386   -2.0553 H   0  0  0  0  0  0  0  0  0  0  0  0
  1  3  1  0  0  0  0
  1  2  1  0  0  0  0
  4  5  1  0  0  0  0
  5  7  2  0  0  0  0
  5  6  1  0  0  0  0
  7  8  1  0  0  0  0
  9  7  1  0  0  0  0
 10  9  1  0  0  0  0
 11 13  1  0  0  0  0
 11  9  2  0  0  0  0
 12 11  1  0  0  0  0
 13  4  2  0  0  0  0
 14 13  1  0  0  0  0
M  END
>  <SMILES>
O.n1ccccc1

>  <MoleculeName>
WaterPyridine150

>  <Distance Scale>
1.5

>  <Energy Value>
-3.01

$$$$
/home/S66X8/3056_45EthynePentane125.xyz
 OpenBabel06262409173D

 21 19  0  0  0  0  0  0  0  0999 V2000
   -0.6062    0.0559    0.5890 C   0  0  0  0  0  0  0  0  0  0  0  0
   -1.6680    0.0558    0.5890 H   0  0  0  0  0  0  0  0  0  0  0  0
    0.6058    0.0555    0.5893 C   0  0  0  0  0  0  0  0  0  0  0  0
    1.6677    0.0549    0.5897 H   0  0  0  0  0  0  0  0  0  0  0  0
   -2.5304   -0.3625    5.0225 C   0  0  0  0  0  0  0  0  0  0  0  0
   -2.5387   -1.0245    4.1561 H   0  0  0  0  0  0  0  0  0  0  0  0
   -2.5823   -0.9888    5.9131 H   0  0  0  0  0  0  0  0  0  0  0  0
   -3.4328    0.2464    4.9897 H   0  0  0  0  0  0  0  0  0  0  0  0
   -1.2698    0.4921    5.0336 C   0  0  0  0  0  0  0  0  0  0  0  0
   -1.2865    1.1651    5.8940 H   0  0  0  0  0  0  0  0  0  0  0  0
   -1.2446    1.1263    4.1448 H   0  0  0  0  0  0  0  0  0  0  0  0
    0.0001   -0.3463    5.0740 C   0  0  0  0  0  0  0  0  0  0  0  0
    0.0001   -0.9641    5.9771 H   0  0  0  0  0  0  0  0  0  0  0  0
    0.0002   -1.0346    4.2248 H   0  0  0  0  0  0  0  0  0  0  0  0
    1.2700    0.4921    5.0337 C   0  0  0  0  0  0  0  0  0  0  0  0
    1.2866    1.1651    5.8941 H   0  0  0  0  0  0  0  0  0  0  0  0
    1.2448    1.1263    4.1449 H   0  0  0  0  0  0  0  0  0  0  0  0
    2.5305   -0.3625    5.0227 C   0  0  0  0  0  0  0  0  0  0  0  0
    2.5389   -1.0245    4.1563 H   0  0  0  0  0  0  0  0  0  0  0  0
    3.4329    0.2464    4.9900 H   0  0  0  0  0  0  0  0  0  0  0  0
    2.5823   -0.9887    5.9133 H   0  0  0  0  0  0  0  0  0  0  0  0
  1  2  1  0  0  0  0
  1  3  3  0  0  0  0
  3  4  1  0  0  0  0
  5  9  1  0  0  0  0
  5  7  1  0  0  0  0
  6  5  1  0  0  0  0
  8  5  1  0  0  0  0
  9 12  1  0  0  0  0
  9 10  1  0  0  0  0
 11  9  1  0  0  0  0
 12 13  1  0  0  0  0
 14 12  1  0  0  0  0
 15 12  1  0  0  0  0
 15 16  1  0  0  0  0
 17 15  1  0  0  0  0
 18 15  1  0  0  0  0
 18 21  1  0  0  0  0
 19 18  1  0  0  0  0
 20 18  1  0  0  0  0
M  END
>  <SMILES>
C#C.CCCCC

>  <MoleculeName>
EthynePentane125

>  <Distance Scale>
1.25

>  <Energy Value>
-0.98

$$$$
/home/S66X8/3185_61PentaneAcOH150.xyz
 OpenBabel06262409173D

 25 23  0  0  0  0  0  0  0  0999 V2000
   -2.2753   -0.1351    0.8313 C   0  0  0  0  0  0  0  0  0  0  0  0
   -2.4907   -0.7279   -0.0576 H   0  0  0  0  0  0  0  0  0  0  0  0
   -2.2263   -0.8184    1.6788 H   0  0  0  0  0  0  0  0  0  0  0  0
   -3.1120    0.5449    0.9874 H   0  0  0  0  0  0  0  0  0  0  0  0
   -0.9617    0.6193    0.6694 C   0  0  0  0  0  0  0  0  0  0  0  0
   -0.7887    1.2504    1.5447 H   0  0  0  0  0  0  0  0  0  0  0  0
   -1.0262    1.2954   -0.1865 H   0  0  0  0  0  0  0  0  0  0  0  0
    0.2265   -0.3147    0.4800 C   0  0  0  0  0  0  0  0  0  0  0  0
    0.3094   -0.9751    1.3480 H   0  0  0  0  0  0  0  0  0  0  0  0
    0.0392   -0.9660   -0.3788 H   0  0  0  0  0  0  0  0  0  0  0  0
    1.5430    0.4212    0.2690 C   0  0  0  0  0  0  0  0  0  0  0  0
    1.7116    1.1078    1.1024 H   0  0  0  0  0  0  0  0  0  0  0  0
    1.4661    1.0437   -0.6253 H   0  0  0  0  0  0  0  0  0  0  0  0
    2.7276   -0.5269    0.1375 C   0  0  0  0  0  0  0  0  0  0  0  0
    2.5887   -1.2032   -0.7058 H   0  0  0  0  0  0  0  0  0  0  0  0
    3.6615    0.0117   -0.0160 H   0  0  0  0  0  0  0  0  0  0  0  0
    2.8352   -1.1374    1.0341 H   0  0  0  0  0  0  0  0  0  0  0  0
   -0.7541   -0.3580    5.5066 C   0  0  0  0  0  0  0  0  0  0  0  0
   -1.1767   -1.4732    5.3094 O   0  0  0  0  0  0  0  0  0  0  0  0
   -1.5678    0.7009    5.7391 O   0  0  0  0  0  0  0  0  0  0  0  0
   -2.4685    0.3465    5.6986 H   0  0  0  0  0  0  0  0  0  0  0  0
    0.6862    0.0516    5.5238 C   0  0  0  0  0  0  0  0  0  0  0  0
    1.3120   -0.8186    5.3656 H   0  0  0  0  0  0  0  0  0  0  0  0
    0.8622    0.7859    4.7406 H   0  0  0  0  0  0  0  0  0  0  0  0
    0.9235    0.5209    6.4756 H   0  0  0  0  0  0  0  0  0  0  0  0
  1  4  1  0  0  0  0
  1  3  1  0  0  0  0
  2  1  1  0  0  0  0
  5  1  1  0  0  0  0
  5  6  1  0  0  0  0
  7  5  1  0  0  0  0
  8  5  1  0  0  0  0
  8  9  1  0  0  0  0
 10  8  1  0  0  0  0
 11  8  1  0  0  0  0
 11 12  1  0  0  0  0
 13 11  1  0  0  0  0
 14 11  1  0  0  0  0
 14 17  1  0  0  0  0
 15 14  1  0  0  0  0
 16 14  1  0  0  0  0
 18 22  1  0  0  0  0
 18 20  1  0  0  0  0
 19 18  2  0  0  0  0
 21 20  1  0  0  0  0
 22 25  1  0  0  0  0
 23 22  1  0  0  0  0
 24 22  1  0  0  0  0
M  END
>  <SMILES>
CCCCC.C(=O)(O)C

>  <MoleculeName>
PentaneAcOH150

>  <Distance Scale>
1.5

>  <Energy Value>
-0.78

$$$$
/home/S66X8/2987_37CyclopentaneNeopentane090.xyz
 OpenBabel06262409173D

 32 31  0  0  0  0  0  0  0  0999 V2000
    0.7999   -1.0221    0.6877 C   0  0  0  0  0  0  0  0  0  0  0  0
    0.8536   -1.1221   -0.3980 H   0  0  0  0  0  0  0  0  0  0  0  0
    1.4914   -1.7442    1.1197 H   0  0  0  0  0  0  0  0  0  0  0  0
    1.1169    0.4250    1.0997 C   0  0  0  0  0  0  0  0  0  0  0  0
    1.8381    0.8901    0.4305 H   0  0  0  0  0  0  0  0  0  0  0  0
    1.5556    0.4398    2.0971 H   0  0  0  0  0  0  0  0  0  0  0  0
   -0.2446    1.1657    1.1030 C   0  0  0  0  0  0  0  0  0  0  0  0
   -0.2581    2.0009    0.4053 H   0  0  0  0  0  0  0  0  0  0  0  0
   -0.4488    1.5770    2.0910 H   0  0  0  0  0  0  0  0  0  0  0  0
   -1.2987    0.1038    0.7393 C   0  0  0  0  0  0  0  0  0  0  0  0
   -1.4736    0.1052   -0.3380 H   0  0  0  0  0  0  0  0  0  0  0  0
   -2.2567    0.2780    1.2272 H   0  0  0  0  0  0  0  0  0  0  0  0
   -0.6469   -1.2201    1.1363 C   0  0  0  0  0  0  0  0  0  0  0  0
   -1.1244   -2.0876    0.6830 H   0  0  0  0  0  0  0  0  0  0  0  0
   -0.6860   -1.3453    2.2202 H   0  0  0  0  0  0  0  0  0  0  0  0
    0.0422    0.0793    5.2740 C   0  0  0  0  0  0  0  0  0  0  0  0
   -0.0541   -0.0728    6.7897 C   0  0  0  0  0  0  0  0  0  0  0  0
    0.9384   -0.0882    7.2420 H   0  0  0  0  0  0  0  0  0  0  0  0
   -0.6131    0.7551    7.2281 H   0  0  0  0  0  0  0  0  0  0  0  0
   -0.5613   -1.0014    7.0550 H   0  0  0  0  0  0  0  0  0  0  0  0
    0.7563    1.3862    4.9384 C   0  0  0  0  0  0  0  0  0  0  0  0
    0.8378    1.5197    3.8587 H   0  0  0  0  0  0  0  0  0  0  0  0
    0.2128    2.2409    5.3439 H   0  0  0  0  0  0  0  0  0  0  0  0
    1.7639    1.3969    5.3566 H   0  0  0  0  0  0  0  0  0  0  0  0
   -1.3628    0.0992    4.6767 C   0  0  0  0  0  0  0  0  0  0  0  0
   -1.3259    0.2163    3.5928 H   0  0  0  0  0  0  0  0  0  0  0  0
   -1.9451    0.9266    5.0850 H   0  0  0  0  0  0  0  0  0  0  0  0
   -1.8927   -0.8286    4.8980 H   0  0  0  0  0  0  0  0  0  0  0  0
    0.8301   -1.0942    4.6967 C   0  0  0  0  0  0  0  0  0  0  0  0
    0.3349   -2.0411    4.9169 H   0  0  0  0  0  0  0  0  0  0  0  0
    0.9249   -1.0070    3.6135 H   0  0  0  0  0  0  0  0  0  0  0  0
    1.8348   -1.1316    5.1204 H   0  0  0  0  0  0  0  0  0  0  0  0
  1  4  1  0  0  0  0
  1  3  1  0  0  0  0
  1 13  1  0  0  0  0
  2  1  1  0  0  0  0
  4  7  1  0  0  0  0
  4  6  1  0  0  0  0
  5  4  1  0  0  0  0
  7  9  1  0  0  0  0
  8  7  1  0  0  0  0
 10  7  1  0  0  0  0
 10 13  1  0  0  0  0
 10 12  1  0  0  0  0
 11 10  1  0  0  0  0
 13 15  1  0  0  0  0
 14 13  1  0  0  0  0
 16 17  1  0  0  0  0
 17 20  1  0  0  0  0
 17 19  1  0  0  0  0
 17 18  1  0  0  0  0
 21 16  1  0  0  0  0
 21 23  1  0  0  0  0
 21 24  1  0  0  0  0
 22 21  1  0  0  0  0
 25 28  1  0  0  0  0
 25 27  1  0  0  0  0
 25 16  1  0  0  0  0
 26 25  1  0  0  0  0
 29 30  1  0  0  0  0
 29 32  1  0  0  0  0
 29 16  1  0  0  0  0
 31 29  1  0  0  0  0
M  END
>  <SMILES>
C1CCCC1.C(C)(C)(C)C

>  <MoleculeName>
CyclopentaneNeopentane090

>  <Distance Scale>
0.9

>  <Energy Value>
-1.61

$$$$
/home/S66X8/2787_12MeNH2Water090.xyz
 OpenBabel06262409173D

 10  8  0  0  0  0  0  0  0  0999 V2000
   -0.5335   -0.2796    0.1070 N   0  0  0  0  0  0  0  0  0  0  0  0
   -0.6292   -1.2484    0.3828 H   0  0  0  0  0  0  0  0  0  0  0  0
   -1.1226   -0.1662   -0.7078 H   0  0  0  0  0  0  0  0  0  0  0  0
   -1.0169    0.5885    1.1874 C   0  0  0  0  0  0  0  0  0  0  0  0
   -0.9128    1.6256    0.8795 H   0  0  0  0  0  0  0  0  0  0  0  0
   -2.0547    0.4151    1.4785 H   0  0  0  0  0  0  0  0  0  0  0  0
   -0.3850    0.4488    2.0606 H   0  0  0  0  0  0  0  0  0  0  0  0
    1.9445    0.8597    0.2177 O   0  0  0  0  0  0  0  0  0  0  0  0
    1.1270    0.3634    0.0445 H   0  0  0  0  0  0  0  0  0  0  0  0
    2.5264    0.6012   -0.4981 H   0  0  0  0  0  0  0  0  0  0  0  0
  1  2  1  0  0  0  0
  1  4  1  0  0  0  0
  3  1  1  0  0  0  0
  4  6  1  0  0  0  0
  4  7  1  0  0  0  0
  5  4  1  0  0  0  0
  9  8  1  0  0  0  0
 10  8  1  0  0  0  0
M  END
>  <SMILES>
NC.O

>  <MoleculeName>
MeNH2Water090

>  <Distance Scale>
0.9

>  <Energy Value>
-6.75

$$$$
/home/S66X8/2834_17UracilUracilBP200.xyz
 OpenBabel06262409173D

 24 24  0  0  0  0  0  0  0  0999 V2000
   -0.7300    0.0228    0.0009 N   0  0  0  0  0  0  0  0  0  0  0  0
    0.2984    0.0740    0.0016 H   0  0  0  0  0  0  0  0  0  0  0  0
   -1.2968   -1.2404    0.0015 C   0  0  0  0  0  0  0  0  0  0  0  0
   -0.5941   -2.2535    0.0026 O   0  0  0  0  0  0  0  0  0  0  0  0
   -2.7436   -1.2623    0.0005 C   0  0  0  0  0  0  0  0  0  0  0  0
   -3.2496   -2.2118    0.0008 H   0  0  0  0  0  0  0  0  0  0  0  0
   -3.4220   -0.0959   -0.0009 C   0  0  0  0  0  0  0  0  0  0  0  0
   -4.5009   -0.0492   -0.0017 H   0  0  0  0  0  0  0  0  0  0  0  0
   -2.7748    1.1054   -0.0014 N   0  0  0  0  0  0  0  0  0  0  0  0
   -3.2838    1.9739   -0.0025 H   0  0  0  0  0  0  0  0  0  0  0  0
   -1.3915    1.2370   -0.0005 C   0  0  0  0  0  0  0  0  0  0  0  0
   -0.8398    2.3170   -0.0010 O   0  0  0  0  0  0  0  0  0  0  0  0
    5.9266   -1.1786    0.0005 N   0  0  0  0  0  0  0  0  0  0  0  0
    6.3738   -0.2720    0.0009 H   0  0  0  0  0  0  0  0  0  0  0  0
    6.7826   -2.2932   -0.0010 C   0  0  0  0  0  0  0  0  0  0  0  0
    7.9921   -2.1415   -0.0017 O   0  0  0  0  0  0  0  0  0  0  0  0
    6.0684   -3.5554   -0.0015 C   0  0  0  0  0  0  0  0  0  0  0  0
    6.6350   -4.4704   -0.0026 H   0  0  0  0  0  0  0  0  0  0  0  0
    4.7182   -3.5592   -0.0005 C   0  0  0  0  0  0  0  0  0  0  0  0
    4.1413   -4.4722   -0.0009 H   0  0  0  0  0  0  0  0  0  0  0  0
    3.9802   -2.4083    0.0009 N   0  0  0  0  0  0  0  0  0  0  0  0
    2.9539   -2.4298    0.0016 H   0  0  0  0  0  0  0  0  0  0  0  0
    4.5530   -1.1637    0.0015 C   0  0  0  0  0  0  0  0  0  0  0  0
    3.9027   -0.1224    0.0027 O   0  0  0  0  0  0  0  0  0  0  0  0
  1  3  1  0  0  0  0
  1  2  1  0  0  0  0
  3  4  2  0  0  0  0
  5  6  1  0  0  0  0
  5  3  1  0  0  0  0
  7  5  2  0  0  0  0
  8  7  1  0  0  0  0
  9  7  1  0  0  0  0
  9 11  1  0  0  0  0
 10  9  1  0  0  0  0
 11  1  1  0  0  0  0
 12 11  2  0  0  0  0
 13 14  1  0  0  0  0
 13 23  1  0  0  0  0
 15 13  1  0  0  0  0
 16 15  2  0  0  0  0
 17 15  1  0  0  0  0
 17 19  2  0  0  0  0
 18 17  1  0  0  0  0
 19 21  1  0  0  0  0
 20 19  1  0  0  0  0
 21 23  1  0  0  0  0
 21 22  1  0  0  0  0
 23 24  2  0  0  0  0
M  END
>  <SMILES>
[nH]1c(=O)cc[nH]c1=O.[nH]1c(=O)cc[nH]c1=O

>  <MoleculeName>
UracilUracilBP200

>  <Distance Scale>
2.0

>  <Energy Value>
-3.33

$$$$
/home/S66X8/3004_39BenzeneCyclopentane095.xyz
 OpenBabel06262409173D

 27 27  0  0  0  0  0  0  0  0999 V2000
    0.7655    0.8682    0.8210 C   0  0  0  0  0  0  0  0  0  0  0  0
    1.4375    1.6800    1.0651 H   0  0  0  0  0  0  0  0  0  0  0  0
    1.2377   -0.4428    0.7939 C   0  0  0  0  0  0  0  0  0  0  0  0
    2.2758   -0.6485    1.0177 H   0  0  0  0  0  0  0  0  0  0  0  0
    0.3722   -1.4885    0.4773 C   0  0  0  0  0  0  0  0  0  0  0  0
    0.7382   -2.5061    0.4571 H   0  0  0  0  0  0  0  0  0  0  0  0
   -0.9649   -1.2230    0.1869 C   0  0  0  0  0  0  0  0  0  0  0  0
   -1.6365   -2.0346   -0.0578 H   0  0  0  0  0  0  0  0  0  0  0  0
   -1.4371    0.0884    0.2133 C   0  0  0  0  0  0  0  0  0  0  0  0
   -2.4747    0.2943   -0.0115 H   0  0  0  0  0  0  0  0  0  0  0  0
   -0.5719    1.1340    0.5308 C   0  0  0  0  0  0  0  0  0  0  0  0
   -0.9377    2.1517    0.5511 H   0  0  0  0  0  0  0  0  0  0  0  0
   -0.7721   -0.7420    3.8695 C   0  0  0  0  0  0  0  0  0  0  0  0
   -0.8783   -0.5671    2.7972 H   0  0  0  0  0  0  0  0  0  0  0  0
   -1.4237   -1.5713    4.1427 H   0  0  0  0  0  0  0  0  0  0  0  0
    0.6975   -0.9991    4.2137 C   0  0  0  0  0  0  0  0  0  0  0  0
    1.1927   -1.6367    3.4831 H   0  0  0  0  0  0  0  0  0  0  0  0
    0.7608   -1.4993    5.1811 H   0  0  0  0  0  0  0  0  0  0  0  0
    1.3376    0.4063    4.3046 C   0  0  0  0  0  0  0  0  0  0  0  0
    1.9879    0.5990    3.4528 H   0  0  0  0  0  0  0  0  0  0  0  0
    1.9505    0.4955    5.2004 H   0  0  0  0  0  0  0  0  0  0  0  0
    0.1586    1.4055    4.3315 C   0  0  0  0  0  0  0  0  0  0  0  0
    0.0414    1.8645    3.3492 H   0  0  0  0  0  0  0  0  0  0  0  0
    0.3042    2.2070    5.0539 H   0  0  0  0  0  0  0  0  0  0  0  0
   -1.0752    0.5484    4.6271 C   0  0  0  0  0  0  0  0  0  0  0  0
   -2.0062    1.0241    4.3212 H   0  0  0  0  0  0  0  0  0  0  0  0
   -1.1406    0.3391    5.6977 H   0  0  0  0  0  0  0  0  0  0  0  0
  1  2  1  0  0  0  0
  3  1  1  0  0  0  0
  3  4  1  0  0  0  0
  5  3  2  0  0  0  0
  6  5  1  0  0  0  0
  7  9  2  0  0  0  0
  7  5  1  0  0  0  0
  8  7  1  0  0  0  0
  9 11  1  0  0  0  0
 10  9  1  0  0  0  0
 11 12  1  0  0  0  0
 11  1  2  0  0  0  0
 13 15  1  0  0  0  0
 13 16  1  0  0  0  0
 13 25  1  0  0  0  0
 14 13  1  0  0  0  0
 16 19  1  0  0  0  0
 16 18  1  0  0  0  0
 17 16  1  0  0  0  0
 19 22  1  0  0  0  0
 19 21  1  0  0  0  0
 20 19  1  0  0  0  0
 22 25  1  0  0  0  0
 22 24  1  0  0  0  0
 23 22  1  0  0  0  0
 25 27  1  0  0  0  0
 26 25  1  0  0  0  0
M  END
>  <SMILES>
c1ccccc1.C1CCCC1

>  <MoleculeName>
BenzeneCyclopentane095

>  <Distance Scale>
0.95

>  <Energy Value>
-3.24

$$$$
/home/S66X8/2864_21AcNH2AcNH2125.xyz
 OpenBabel06262409173D

 18 16  0  0  0  0  0  0  0  0999 V2000
   -1.3097    1.1802   -0.0252 C   0  0  0  0  0  0  0  0  0  0  0  0
   -0.7253    2.1551    0.4527 O   0  0  0  0  0  0  0  0  0  0  0  0
   -0.6656    0.0951   -0.4920 N   0  0  0  0  0  0  0  0  0  0  0  0
    0.3546    0.0514   -0.4593 H   0  0  0  0  0  0  0  0  0  0  0  0
   -1.1836   -0.6736   -0.8708 H   0  0  0  0  0  0  0  0  0  0  0  0
   -2.8167    1.1560   -0.1106 C   0  0  0  0  0  0  0  0  0  0  0  0
   -3.2206    1.2625    0.8931 H   0  0  0  0  0  0  0  0  0  0  0  0
   -3.2094    0.2486   -0.5619 H   0  0  0  0  0  0  0  0  0  0  0  0
   -3.1432    2.0166   -0.6889 H   0  0  0  0  0  0  0  0  0  0  0  0
    3.2577    1.0738    0.1641 C   0  0  0  0  0  0  0  0  0  0  0  0
    2.6733    0.0998   -0.3156 O   0  0  0  0  0  0  0  0  0  0  0  0
    2.6136    2.1585    0.6320 N   0  0  0  0  0  0  0  0  0  0  0  0
    1.5935    2.2030    0.5977 H   0  0  0  0  0  0  0  0  0  0  0  0
    3.1316    2.9265    1.0121 H   0  0  0  0  0  0  0  0  0  0  0  0
    4.7647    1.0981    0.2493 C   0  0  0  0  0  0  0  0  0  0  0  0
    5.1566    1.9977    0.7165 H   0  0  0  0  0  0  0  0  0  0  0  0
    5.1683    1.0105   -0.7564 H   0  0  0  0  0  0  0  0  0  0  0  0
    5.0925    0.2275    0.8115 H   0  0  0  0  0  0  0  0  0  0  0  0
  1  2  2  0  0  0  0
  3  4  1  0  0  0  0
  3  1  1  0  0  0  0
  5  3  1  0  0  0  0
  6  1  1  0  0  0  0
  6  7  1  0  0  0  0
  8  6  1  0  0  0  0
  9  6  1  0  0  0  0
 10 15  1  0  0  0  0
 10 12  1  0  0  0  0
 11 10  2  0  0  0  0
 12 14  1  0  0  0  0
 13 12  1  0  0  0  0
 15 16  1  0  0  0  0
 15 18  1  0  0  0  0
 17 15  1  0  0  0  0
M  END
>  <SMILES>
C(=O)(N)C.C(=O)(N)C

>  <MoleculeName>
AcNH2AcNH2125

>  <Distance Scale>
1.25

>  <Energy Value>
-12.42

$$$$
/home/S66X8/2788_12MeNH2Water095.xyz
 OpenBabel06262409173D

 10  8  0  0  0  0  0  0  0  0999 V2000
   -0.5335   -0.2796    0.1070 N   0  0  0  0  0  0  0  0  0  0  0  0
   -0.6292   -1.2484    0.3828 H   0  0  0  0  0  0  0  0  0  0  0  0
   -1.1226   -0.1662   -0.7078 H   0  0  0  0  0  0  0  0  0  0  0  0
   -1.0169    0.5885    1.1874 C   0  0  0  0  0  0  0  0  0  0  0  0
   -0.9128    1.6256    0.8795 H   0  0  0  0  0  0  0  0  0  0  0  0
   -2.0547    0.4151    1.4785 H   0  0  0  0  0  0  0  0  0  0  0  0
   -0.3850    0.4488    2.0606 H   0  0  0  0  0  0  0  0  0  0  0  0
    2.0368    0.8954    0.2142 O   0  0  0  0  0  0  0  0  0  0  0  0
    1.2193    0.3992    0.0411 H   0  0  0  0  0  0  0  0  0  0  0  0
    2.6187    0.6369   -0.5015 H   0  0  0  0  0  0  0  0  0  0  0  0
  1  2  1  0  0  0  0
  1  4  1  0  0  0  0
  3  1  1  0  0  0  0
  4  6  1  0  0  0  0
  4  7  1  0  0  0  0
  5  4  1  0  0  0  0
  9  8  1  0  0  0  0
 10  8  1  0  0  0  0
M  END
>  <SMILES>
NC.O

>  <MoleculeName>
MeNH2Water095

>  <Distance Scale>
0.95

>  <Energy Value>
-7.2

$$$$
/home/S66X8/3155_58PyridinePyridineCHN090.xyz
 OpenBabel06262409173D

 22 22  0  0  0  0  0  0  0  0999 V2000
   -0.9412    0.7900    0.0117 N   0  0  0  0  0  0  0  0  0  0  0  0
   -0.9228   -0.5524    0.0354 C   0  0  0  0  0  0  0  0  0  0  0  0
    0.0572   -1.0156    0.0514 H   0  0  0  0  0  0  0  0  0  0  0  0
   -2.0765   -1.3330    0.0393 C   0  0  0  0  0  0  0  0  0  0  0  0
   -1.9965   -2.4106    0.0589 H   0  0  0  0  0  0  0  0  0  0  0  0
   -3.3163   -0.7033    0.0176 C   0  0  0  0  0  0  0  0  0  0  0  0
   -4.2316   -1.2791    0.0198 H   0  0  0  0  0  0  0  0  0  0  0  0
   -3.3489    0.6870   -0.0071 C   0  0  0  0  0  0  0  0  0  0  0  0
   -4.2854    1.2261   -0.0247 H   0  0  0  0  0  0  0  0  0  0  0  0
   -2.1431    1.3826   -0.0089 C   0  0  0  0  0  0  0  0  0  0  0  0
   -2.1381    2.4657   -0.0278 H   0  0  0  0  0  0  0  0  0  0  0  0
    2.2047   -0.9588    0.0430 N   0  0  0  0  0  0  0  0  0  0  0  0
    3.4065   -1.5519    0.0450 C   0  0  0  0  0  0  0  0  0  0  0  0
    3.4012   -2.6349    0.0669 H   0  0  0  0  0  0  0  0  0  0  0  0
    4.6124   -0.8570    0.0210 C   0  0  0  0  0  0  0  0  0  0  0  0
    5.5488   -1.3965    0.0241 H   0  0  0  0  0  0  0  0  0  0  0  0
    4.5801    0.5333   -0.0067 C   0  0  0  0  0  0  0  0  0  0  0  0
    5.4955    1.1086   -0.0259 H   0  0  0  0  0  0  0  0  0  0  0  0
    3.3404    1.1636   -0.0092 C   0  0  0  0  0  0  0  0  0  0  0  0
    3.2606    2.2412   -0.0303 H   0  0  0  0  0  0  0  0  0  0  0  0
    2.1865    0.3836    0.0160 C   0  0  0  0  0  0  0  0  0  0  0  0
    1.2066    0.8473    0.0143 H   0  0  0  0  0  0  0  0  0  0  0  0
  1  2  1  0  0  0  0
  2  4  2  0  0  0  0
  2  3  1  0  0  0  0
  4  5  1  0  0  0  0
  6  7  1  0  0  0  0
  6  4  1  0  0  0  0
  8  6  2  0  0  0  0
  9  8  1  0  0  0  0
 10  8  1  0  0  0  0
 10  1  2  0  0  0  0
 11 10  1  0  0  0  0
 12 13  1  0  0  0  0
 13 14  1  0  0  0  0
 15 16  1  0  0  0  0
 15 13  2  0  0  0  0
 17 15  1  0  0  0  0
 18 17  1  0  0  0  0
 19 17  2  0  0  0  0
 19 21  1  0  0  0  0
 20 19  1  0  0  0  0
 21 12  2  0  0  0  0
 22 21  1  0  0  0  0
M  END
>  <SMILES>
n1ccccc1.n1ccccc1

>  <MoleculeName>
PyridinePyridineCHN090

>  <Distance Scale>
0.9

>  <Energy Value>
-2.8

$$$$
/home/S66X8/2842_18WaterPyridine200.xyz
 OpenBabel06262409173D

 14 13  0  0  0  0  0  0  0  0999 V2000
   -0.5528   -0.1017   -0.0005 O   0  0  0  0  0  0  0  0  0  0  0  0
   -0.8718    0.8018    0.0001 H   0  0  0  0  0  0  0  0  0  0  0  0
    0.4127   -0.0018   -0.0003 H   0  0  0  0  0  0  0  0  0  0  0  0
    4.3987    0.1993    0.0006 N   0  0  0  0  0  0  0  0  0  0  0  0
    5.0946    0.1653    1.1453 C   0  0  0  0  0  0  0  0  0  0  0  0
    4.5100    0.1889    2.0562 H   0  0  0  0  0  0  0  0  0  0  0  0
    6.4837    0.1001    1.1953 C   0  0  0  0  0  0  0  0  0  0  0  0
    6.9896    0.0753    2.1496 H   0  0  0  0  0  0  0  0  0  0  0  0
    7.1948    0.0670    0.0004 C   0  0  0  0  0  0  0  0  0  0  0  0
    8.2747    0.0152    0.0003 H   0  0  0  0  0  0  0  0  0  0  0  0
    6.4835    0.1001   -1.1944 C   0  0  0  0  0  0  0  0  0  0  0  0
    6.9893    0.0752   -2.1488 H   0  0  0  0  0  0  0  0  0  0  0  0
    5.0945    0.1653   -1.1443 C   0  0  0  0  0  0  0  0  0  0  0  0
    4.5097    0.1889   -2.0551 H   0  0  0  0  0  0  0  0  0  0  0  0
  1  3  1  0  0  0  0
  1  2  1  0  0  0  0
  4  5  1  0  0  0  0
  5  7  2  0  0  0  0
  5  6  1  0  0  0  0
  7  8  1  0  0  0  0
  9  7  1  0  0  0  0
 10  9  1  0  0  0  0
 11 13  1  0  0  0  0
 11  9  2  0  0  0  0
 12 11  1  0  0  0  0
 13  4  2  0  0  0  0
 14 13  1  0  0  0  0
M  END
>  <SMILES>
O.n1ccccc1

>  <MoleculeName>
WaterPyridine200

>  <Distance Scale>
2.0

>  <Energy Value>
-1.19

$$$$
/home/S66X8/2714_02WaterMeOH200.xyz
 OpenBabel06262409173D

  9  7  0  0  0  0  0  0  0  0999 V2000
   -0.5253   -0.0510   -0.3145 O   0  0  0  0  0  0  0  0  0  0  0  0
   -0.9420    0.7479    0.0113 H   0  0  0  0  0  0  0  0  0  0  0  0
    0.4037    0.0598   -0.0736 H   0  0  0  0  0  0  0  0  0  0  0  0
    4.3171    0.0306    0.2239 O   0  0  0  0  0  0  0  0  0  0  0  0
    4.6851   -0.5415    0.9015 H   0  0  0  0  0  0  0  0  0  0  0  0
    4.7821   -0.4411   -1.0382 C   0  0  0  0  0  0  0  0  0  0  0  0
    4.3513    0.2100   -1.7913 H   0  0  0  0  0  0  0  0  0  0  0  0
    5.8681   -0.3903   -1.1125 H   0  0  0  0  0  0  0  0  0  0  0  0
    4.4538   -1.4609   -1.2373 H   0  0  0  0  0  0  0  0  0  0  0  0
  1  3  1  0  0  0  0
  1  2  1  0  0  0  0
  4  5  1  0  0  0  0
  6  4  1  0  0  0  0
  7  6  1  0  0  0  0
  8  6  1  0  0  0  0
  9  6  1  0  0  0  0
M  END
>  <SMILES>
O.OC

>  <MoleculeName>
WaterMeOH200

>  <Distance Scale>
2.0

>  <Energy Value>
-0.95

$$$$
/home/S66X8/2796_13PeptideMeOH095.xyz
 OpenBabel06262409173D

 18 16  0  0  0  0  0  0  0  0999 V2000
   -0.8493   -0.3395    2.4917 C   0  0  0  0  0  0  0  0  0  0  0  0
    0.1843   -0.0110    2.4162 H   0  0  0  0  0  0  0  0  0  0  0  0
   -0.8825   -1.3421    2.9127 H   0  0  0  0  0  0  0  0  0  0  0  0
   -1.3908    0.3169    3.1684 H   0  0  0  0  0  0  0  0  0  0  0  0
   -1.5640   -0.3533    1.1595 C   0  0  0  0  0  0  0  0  0  0  0  0
   -2.7495   -0.6515    1.0568 O   0  0  0  0  0  0  0  0  0  0  0  0
   -0.8017   -0.0274    0.0883 N   0  0  0  0  0  0  0  0  0  0  0  0
    0.1612    0.2404    0.2187 H   0  0  0  0  0  0  0  0  0  0  0  0
   -1.3853   -0.0024   -1.2341 C   0  0  0  0  0  0  0  0  0  0  0  0
   -1.8916   -0.9428   -1.4401 H   0  0  0  0  0  0  0  0  0  0  0  0
   -2.1200    0.7962   -1.3309 H   0  0  0  0  0  0  0  0  0  0  0  0
   -0.5946    0.1496   -1.9631 H   0  0  0  0  0  0  0  0  0  0  0  0
    2.0619    0.2516    0.4448 O   0  0  0  0  0  0  0  0  0  0  0  0
    2.7828    0.8789    0.5352 H   0  0  0  0  0  0  0  0  0  0  0  0
    2.5810   -1.0538    0.6787 C   0  0  0  0  0  0  0  0  0  0  0  0
    1.7484   -1.7426    0.5731 H   0  0  0  0  0  0  0  0  0  0  0  0
    3.3471   -1.3228   -0.0482 H   0  0  0  0  0  0  0  0  0  0  0  0
    2.9891   -1.1552    1.6843 H   0  0  0  0  0  0  0  0  0  0  0  0
  1  3  1  0  0  0  0
  1  4  1  0  0  0  0
  2  1  1  0  0  0  0
  5  1  1  0  0  0  0
  6  5  2  0  0  0  0
  7  8  1  0  0  0  0
  7  5  1  0  0  0  0
  9  7  1  0  0  0  0
 10  9  1  0  0  0  0
 11  9  1  0  0  0  0
 12  9  1  0  0  0  0
 13 14  1  0  0  0  0
 13 15  1  0  0  0  0
 15 18  1  0  0  0  0
 16 15  1  0  0  0  0
 17 15  1  0  0  0  0
M  END
>  <SMILES>
CC(=O)NC.OC

>  <MoleculeName>
PeptideMeOH095

>  <Distance Scale>
0.95

>  <Energy Value>
-6.11

$$$$
/home/S66X8/2802_13PeptideMeOH200.xyz
 OpenBabel06262409173D

 18 16  0  0  0  0  0  0  0  0999 V2000
   -0.8493   -0.3395    2.4917 C   0  0  0  0  0  0  0  0  0  0  0  0
    0.1843   -0.0110    2.4162 H   0  0  0  0  0  0  0  0  0  0  0  0
   -0.8825   -1.3421    2.9127 H   0  0  0  0  0  0  0  0  0  0  0  0
   -1.3908    0.3169    3.1684 H   0  0  0  0  0  0  0  0  0  0  0  0
   -1.5640   -0.3533    1.1595 C   0  0  0  0  0  0  0  0  0  0  0  0
   -2.7495   -0.6515    1.0568 O   0  0  0  0  0  0  0  0  0  0  0  0
   -0.8017   -0.0274    0.0883 N   0  0  0  0  0  0  0  0  0  0  0  0
    0.1612    0.2404    0.2187 H   0  0  0  0  0  0  0  0  0  0  0  0
   -1.3853   -0.0024   -1.2341 C   0  0  0  0  0  0  0  0  0  0  0  0
   -1.8916   -0.9428   -1.4401 H   0  0  0  0  0  0  0  0  0  0  0  0
   -2.1200    0.7962   -1.3309 H   0  0  0  0  0  0  0  0  0  0  0  0
   -0.5946    0.1496   -1.9631 H   0  0  0  0  0  0  0  0  0  0  0  0
    4.1626    0.2640    0.6946 O   0  0  0  0  0  0  0  0  0  0  0  0
    4.8835    0.8913    0.7850 H   0  0  0  0  0  0  0  0  0  0  0  0
    4.6817   -1.0414    0.9285 C   0  0  0  0  0  0  0  0  0  0  0  0
    3.8491   -1.7302    0.8229 H   0  0  0  0  0  0  0  0  0  0  0  0
    5.4478   -1.3104    0.2016 H   0  0  0  0  0  0  0  0  0  0  0  0
    5.0898   -1.1428    1.9341 H   0  0  0  0  0  0  0  0  0  0  0  0
  1  3  1  0  0  0  0
  1  4  1  0  0  0  0
  2  1  1  0  0  0  0
  5  1  1  0  0  0  0
  6  5  2  0  0  0  0
  7  8  1  0  0  0  0
  7  5  1  0  0  0  0
  9  7  1  0  0  0  0
 10  9  1  0  0  0  0
 11  9  1  0  0  0  0
 12  9  1  0  0  0  0
 13 14  1  0  0  0  0
 13 15  1  0  0  0  0
 15 18  1  0  0  0  0
 16 15  1  0  0  0  0
 17 15  1  0  0  0  0
M  END
>  <SMILES>
CC(=O)NC.OC

>  <MoleculeName>
PeptideMeOH200

>  <Distance Scale>
2.0

>  <Energy Value>
-1.3

$$$$
/home/S66X8/3083_49BenzenePyridineTS090.xyz
 OpenBabel06262409173D

 23 23  0  0  0  0  0  0  0  0999 V2000
    0.8451    1.0579    0.6995 C   0  0  0  0  0  0  0  0  0  0  0  0
    1.5064    1.9032    0.8334 H   0  0  0  0  0  0  0  0  0  0  0  0
    1.3755   -0.2175    0.5112 C   0  0  0  0  0  0  0  0  0  0  0  0
    2.4472   -0.3615    0.5029 H   0  0  0  0  0  0  0  0  0  0  0  0
    0.5241   -1.3070    0.3332 C   0  0  0  0  0  0  0  0  0  0  0  0
    0.9357   -2.2960    0.1849 H   0  0  0  0  0  0  0  0  0  0  0  0
   -0.8577   -1.1215    0.3464 C   0  0  0  0  0  0  0  0  0  0  0  0
   -1.5184   -1.9665    0.2084 H   0  0  0  0  0  0  0  0  0  0  0  0
   -1.3880    0.1536    0.5376 C   0  0  0  0  0  0  0  0  0  0  0  0
   -2.4597    0.2974    0.5500 H   0  0  0  0  0  0  0  0  0  0  0  0
   -0.5366    1.2434    0.7127 C   0  0  0  0  0  0  0  0  0  0  0  0
   -0.9489    2.2328    0.8574 H   0  0  0  0  0  0  0  0  0  0  0  0
    0.0276    0.4241    6.4197 N   0  0  0  0  0  0  0  0  0  0  0  0
    0.1823    1.3621    5.4748 C   0  0  0  0  0  0  0  0  0  0  0  0
    0.3240    2.3746    5.8327 H   0  0  0  0  0  0  0  0  0  0  0  0
    0.1681    1.0948    4.1083 C   0  0  0  0  0  0  0  0  0  0  0  0
    0.2983    1.8958    3.3944 H   0  0  0  0  0  0  0  0  0  0  0  0
   -0.0163   -0.2168    3.6830 C   0  0  0  0  0  0  0  0  0  0  0  0
   -0.0328   -0.4599    2.6297 H   0  0  0  0  0  0  0  0  0  0  0  0
   -0.1781   -1.2018    4.6519 C   0  0  0  0  0  0  0  0  0  0  0  0
   -0.3247   -2.2371    4.3771 H   0  0  0  0  0  0  0  0  0  0  0  0
   -0.1489   -0.8345    5.9950 C   0  0  0  0  0  0  0  0  0  0  0  0
   -0.2725   -1.5820    6.7691 H   0  0  0  0  0  0  0  0  0  0  0  0
  1 11  1  0  0  0  0
  1  2  1  0  0  0  0
  3  1  2  0  0  0  0
  4  3  1  0  0  0  0
  5  7  2  0  0  0  0
  5  3  1  0  0  0  0
  6  5  1  0  0  0  0
  7  9  1  0  0  0  0
  8  7  1  0  0  0  0
  9 10  1  0  0  0  0
  9 11  2  0  0  0  0
 11 12  1  0  0  0  0
 14 15  1  0  0  0  0
 14 13  2  0  0  0  0
 16 14  1  0  0  0  0
 17 16  1  0  0  0  0
 18 16  2  0  0  0  0
 18 20  1  0  0  0  0
 19 18  1  0  0  0  0
 20 22  2  0  0  0  0
 21 20  1  0  0  0  0
 22 13  1  0  0  0  0
 22 23  1  0  0  0  0
M  END
>  <SMILES>
c1ccccc1.n1ccccc1

>  <MoleculeName>
BenzenePyridineTS090

>  <Distance Scale>
0.9

>  <Energy Value>
-2.09

$$$$
/home/S66X8/2783_11MeNH2Peptide110.xyz
 OpenBabel06262409173D

 19 17  0  0  0  0  0  0  0  0999 V2000
   -0.5697    0.8144    0.1011 N   0  0  0  0  0  0  0  0  0  0  0  0
    0.1309    0.5614   -0.5876 H   0  0  0  0  0  0  0  0  0  0  0  0
   -1.4613    0.5269   -0.2804 H   0  0  0  0  0  0  0  0  0  0  0  0
   -0.3055    0.0657    1.3288 C   0  0  0  0  0  0  0  0  0  0  0  0
   -1.0571    0.3143    2.0760 H   0  0  0  0  0  0  0  0  0  0  0  0
   -0.2880   -1.0223    1.2148 H   0  0  0  0  0  0  0  0  0  0  0  0
    0.6605    0.3685    1.7302 H   0  0  0  0  0  0  0  0  0  0  0  0
    2.5155    2.6717   -0.1848 C   0  0  0  0  0  0  0  0  0  0  0  0
    2.6401    3.0829   -1.1838 H   0  0  0  0  0  0  0  0  0  0  0  0
    3.0221    3.3127    0.5330 H   0  0  0  0  0  0  0  0  0  0  0  0
    1.4491    2.6452    0.0336 H   0  0  0  0  0  0  0  0  0  0  0  0
    3.0275    1.2539   -0.1825 C   0  0  0  0  0  0  0  0  0  0  0  0
    2.5675    0.3882   -0.9217 O   0  0  0  0  0  0  0  0  0  0  0  0
    4.0140    0.9809    0.7098 N   0  0  0  0  0  0  0  0  0  0  0  0
    4.4137    1.7358    1.2352 H   0  0  0  0  0  0  0  0  0  0  0  0
    4.6024   -0.3387    0.7873 C   0  0  0  0  0  0  0  0  0  0  0  0
    3.8142   -1.0800    0.6943 H   0  0  0  0  0  0  0  0  0  0  0  0
    5.3237   -0.5107   -0.0112 H   0  0  0  0  0  0  0  0  0  0  0  0
    5.0971   -0.4546    1.7473 H   0  0  0  0  0  0  0  0  0  0  0  0
  1  4  1  0  0  0  0
  2  1  1  0  0  0  0
  3  1  1  0  0  0  0
  4  7  1  0  0  0  0
  4  5  1  0  0  0  0
  6  4  1  0  0  0  0
  8 12  1  0  0  0  0
  8 11  1  0  0  0  0
  8 10  1  0  0  0  0
  9  8  1  0  0  0  0
 12 14  1  0  0  0  0
 13 12  2  0  0  0  0
 14 16  1  0  0  0  0
 14 15  1  0  0  0  0
 16 19  1  0  0  0  0
 17 16  1  0  0  0  0
 18 16  1  0  0  0  0
M  END
>  <SMILES>
NC.CC(=O)NC

>  <MoleculeName>
MeNH2Peptide110

>  <Distance Scale>
1.1

>  <Energy Value>
-4.94

$$$$
/home/S66X8/2790_12MeNH2Water105.xyz
 OpenBabel06262409173D

 10  8  0  0  0  0  0  0  0  0999 V2000
   -0.5335   -0.2796    0.1070 N   0  0  0  0  0  0  0  0  0  0  0  0
   -0.6292   -1.2484    0.3828 H   0  0  0  0  0  0  0  0  0  0  0  0
   -1.1226   -0.1662   -0.7078 H   0  0  0  0  0  0  0  0  0  0  0  0
   -1.0169    0.5885    1.1874 C   0  0  0  0  0  0  0  0  0  0  0  0
   -0.9128    1.6256    0.8795 H   0  0  0  0  0  0  0  0  0  0  0  0
   -2.0547    0.4151    1.4785 H   0  0  0  0  0  0  0  0  0  0  0  0
   -0.3850    0.4488    2.0606 H   0  0  0  0  0  0  0  0  0  0  0  0
    2.2213    0.9669    0.2073 O   0  0  0  0  0  0  0  0  0  0  0  0
    1.4038    0.4706    0.0341 H   0  0  0  0  0  0  0  0  0  0  0  0
    2.8032    0.7084   -0.5085 H   0  0  0  0  0  0  0  0  0  0  0  0
  1  2  1  0  0  0  0
  1  4  1  0  0  0  0
  3  1  1  0  0  0  0
  4  6  1  0  0  0  0
  4  7  1  0  0  0  0
  5  4  1  0  0  0  0
  9  8  1  0  0  0  0
 10  8  1  0  0  0  0
M  END
>  <SMILES>
NC.O

>  <MoleculeName>
MeNH2Water105

>  <Distance Scale>
1.05

>  <Energy Value>
-7.03

$$$$
/home/S66X8/3148_57BenzenePeptideNHpi095.xyz
 OpenBabel06262409173D

 24 23  0  0  0  0  0  0  0  0999 V2000
    0.4088    1.0510    0.3755 C   0  0  0  0  0  0  0  0  0  0  0  0
    1.0119    1.9485    0.3681 H   0  0  0  0  0  0  0  0  0  0  0  0
    1.0192   -0.1998    0.2891 C   0  0  0  0  0  0  0  0  0  0  0  0
    2.0956   -0.2718    0.2172 H   0  0  0  0  0  0  0  0  0  0  0  0
    0.2417   -1.3569    0.2967 C   0  0  0  0  0  0  0  0  0  0  0  0
    0.7152   -2.3266    0.2281 H   0  0  0  0  0  0  0  0  0  0  0  0
   -1.1462   -1.2643    0.3939 C   0  0  0  0  0  0  0  0  0  0  0  0
   -1.7492   -2.1619    0.3994 H   0  0  0  0  0  0  0  0  0  0  0  0
   -1.7573   -0.0140    0.4830 C   0  0  0  0  0  0  0  0  0  0  0  0
   -2.8335    0.0582    0.5590 H   0  0  0  0  0  0  0  0  0  0  0  0
   -0.9797    1.1442    0.4723 C   0  0  0  0  0  0  0  0  0  0  0  0
   -1.4541    2.1140    0.5371 H   0  0  0  0  0  0  0  0  0  0  0  0
    0.2425    1.9494    4.0859 C   0  0  0  0  0  0  0  0  0  0  0  0
   -0.1157    2.1151    3.0726 H   0  0  0  0  0  0  0  0  0  0  0  0
    1.2670    2.3061    4.1673 H   0  0  0  0  0  0  0  0  0  0  0  0
   -0.3616    2.5230    4.7842 H   0  0  0  0  0  0  0  0  0  0  0  0
    0.2056    0.4962    4.5016 C   0  0  0  0  0  0  0  0  0  0  0  0
    0.4902    0.1439    5.6401 O   0  0  0  0  0  0  0  0  0  0  0  0
   -0.1668   -0.3695    3.5223 N   0  0  0  0  0  0  0  0  0  0  0  0
   -0.3279   -0.0115    2.5963 H   0  0  0  0  0  0  0  0  0  0  0  0
   -0.2036   -1.7963    3.7404 C   0  0  0  0  0  0  0  0  0  0  0  0
   -0.1255   -1.9633    4.8104 H   0  0  0  0  0  0  0  0  0  0  0  0
   -1.1388   -2.2147    3.3737 H   0  0  0  0  0  0  0  0  0  0  0  0
    0.6255   -2.3002    3.2431 H   0  0  0  0  0  0  0  0  0  0  0  0
  1 11  1  0  0  0  0
  2  1  1  0  0  0  0
  3  5  1  0  0  0  0
  3  1  2  0  0  0  0
  4  3  1  0  0  0  0
  5  7  2  0  0  0  0
  6  5  1  0  0  0  0
  7  8  1  0  0  0  0
  7  9  1  0  0  0  0
  9 10  1  0  0  0  0
 11  9  2  0  0  0  0
 11 12  1  0  0  0  0
 13 15  1  0  0  0  0
 13 17  1  0  0  0  0
 13 16  1  0  0  0  0
 14 13  1  0  0  0  0
 17 18  2  0  0  0  0
 19 21  1  0  0  0  0
 19 17  1  0  0  0  0
 20 19  1  0  0  0  0
 21 22  1  0  0  0  0
 23 21  1  0  0  0  0
 24 21  1  0  0  0  0
M  END
>  <SMILES>
c1ccccc1.CC(=O)NC

>  <MoleculeName>
BenzenePeptideNHpi095

>  <Distance Scale>
0.95

>  <Energy Value>
-4.96

$$$$
/home/S66X8/2901_26UracilUracilpipi100.xyz
 OpenBabel06262409173D

 24 24  0  0  0  0  0  0  0  0999 V2000
    1.3769    0.8397    0.7346 N   0  0  0  0  0  0  0  0  0  0  0  0
    1.0518    1.3862    1.5234 H   0  0  0  0  0  0  0  0  0  0  0  0
    1.3090    1.4575   -0.5207 C   0  0  0  0  0  0  0  0  0  0  0  0
    0.9206    2.6111   -0.6260 O   0  0  0  0  0  0  0  0  0  0  0  0
    2.0114   -1.2132   -0.0981 N   0  0  0  0  0  0  0  0  0  0  0  0
    1.7273    0.9908   -2.6120 H   0  0  0  0  0  0  0  0  0  0  0  0
    2.0257   -0.6972   -1.3644 C   0  0  0  0  0  0  0  0  0  0  0  0
    2.2975   -1.3911   -2.1456 H   0  0  0  0  0  0  0  0  0  0  0  0
    1.7145    0.5919   -1.6125 C   0  0  0  0  0  0  0  0  0  0  0  0
    2.1295   -2.2015    0.0568 H   0  0  0  0  0  0  0  0  0  0  0  0
    1.6459   -0.4852    1.0187 C   0  0  0  0  0  0  0  0  0  0  0  0
    1.5611   -0.9718    2.1298 O   0  0  0  0  0  0  0  0  0  0  0  0
   -1.3769   -0.8397    0.7346 N   0  0  0  0  0  0  0  0  0  0  0  0
   -1.0518   -1.3862    1.5234 H   0  0  0  0  0  0  0  0  0  0  0  0
   -1.3090   -1.4575   -0.5207 C   0  0  0  0  0  0  0  0  0  0  0  0
   -0.9206   -2.6111   -0.6260 O   0  0  0  0  0  0  0  0  0  0  0  0
   -2.0114    1.2132   -0.0981 N   0  0  0  0  0  0  0  0  0  0  0  0
   -1.7273   -0.9908   -2.6120 H   0  0  0  0  0  0  0  0  0  0  0  0
   -2.0257    0.6972   -1.3644 C   0  0  0  0  0  0  0  0  0  0  0  0
   -2.2975    1.3911   -2.1456 H   0  0  0  0  0  0  0  0  0  0  0  0
   -1.7145   -0.5919   -1.6125 C   0  0  0  0  0  0  0  0  0  0  0  0
   -2.1295    2.2015    0.0568 H   0  0  0  0  0  0  0  0  0  0  0  0
   -1.6459    0.4852    1.0187 C   0  0  0  0  0  0  0  0  0  0  0  0
   -1.5611    0.9718    2.1298 O   0  0  0  0  0  0  0  0  0  0  0  0
  1 11  1  0  0  0  0
  1  2  1  0  0  0  0
  3  1  1  0  0  0  0
  4  3  2  0  0  0  0
  5 10  1  0  0  0  0
  5 11  1  0  0  0  0
  6  9  1  0  0  0  0
  7  5  1  0  0  0  0
  8  7  1  0  0  0  0
  9  7  2  0  0  0  0
  9  3  1  0  0  0  0
 11 12  2  0  0  0  0
 13 23  1  0  0  0  0
 13 14  1  0  0  0  0
 15 13  1  0  0  0  0
 16 15  2  0  0  0  0
 17 22  1  0  0  0  0
 17 23  1  0  0  0  0
 18 21  1  0  0  0  0
 19 17  1  0  0  0  0
 20 19  1  0  0  0  0
 21 19  2  0  0  0  0
 21 15  1  0  0  0  0
 23 24  2  0  0  0  0
M  END
>  <SMILES>
[nH]1c(=O)cc[nH]c1=O.[nH]1c(=O)cc[nH]c1=O

>  <MoleculeName>
UracilUracilpipi100

>  <Distance Scale>
1.0

>  <Energy Value>
-9.82

$$$$
/home/S66X8/2704_01WaterWater125.xyz
 OpenBabel06262409173D

  6  4  0  0  0  0  0  0  0  0999 V2000
   -0.7022   -0.0561    0.0099 O   0  0  0  0  0  0  0  0  0  0  0  0
   -1.0222    0.8468   -0.0115 H   0  0  0  0  0  0  0  0  0  0  0  0
    0.2575    0.0421    0.0052 H   0  0  0  0  0  0  0  0  0  0  0  0
    2.7718    0.0224   -0.0007 O   0  0  0  0  0  0  0  0  0  0  0  0
    3.1484   -0.4160    0.7655 H   0  0  0  0  0  0  0  0  0  0  0  0
    3.1441   -0.4538   -0.7461 H   0  0  0  0  0  0  0  0  0  0  0  0
  2  1  1  0  0  0  0
  3  1  1  0  0  0  0
  4  5  1  0  0  0  0
  6  4  1  0  0  0  0
M  END
>  <SMILES>
O.O

>  <MoleculeName>
WaterWater125

>  <Distance Scale>
1.25

>  <Energy Value>
-3.46

$$$$
/home/S66X8/2737_05MeOHMeOH150.xyz
 OpenBabel06262409173D

 12 10  0  0  0  0  0  0  0  0999 V2000
   -0.6361   -0.0233    0.2806 O   0  0  0  0  0  0  0  0  0  0  0  0
    0.3081   -0.0471    0.0765 H   0  0  0  0  0  0  0  0  0  0  0  0
   -1.1521   -1.3113    0.0153 C   0  0  0  0  0  0  0  0  0  0  0  0
   -2.2099   -1.2963    0.2640 H   0  0  0  0  0  0  0  0  0  0  0  0
   -1.0566   -1.5927   -1.0362 H   0  0  0  0  0  0  0  0  0  0  0  0
   -0.6748   -2.0863    0.6205 H   0  0  0  0  0  0  0  0  0  0  0  0
    3.2079   -0.1615   -0.0585 O   0  0  0  0  0  0  0  0  0  0  0  0
    3.6767    0.4529   -0.6282 H   0  0  0  0  0  0  0  0  0  0  0  0
    3.7168   -0.0045    1.2632 C   0  0  0  0  0  0  0  0  0  0  0  0
    3.1632   -0.6926    1.8933 H   0  0  0  0  0  0  0  0  0  0  0  0
    4.7757   -0.2549    1.3199 H   0  0  0  0  0  0  0  0  0  0  0  0
    3.5643    1.0062    1.6411 H   0  0  0  0  0  0  0  0  0  0  0  0
  2  1  1  0  0  0  0
  3  4  1  0  0  0  0
  3  1  1  0  0  0  0
  3  6  1  0  0  0  0
  5  3  1  0  0  0  0
  7  9  1  0  0  0  0
  8  7  1  0  0  0  0
  9 11  1  0  0  0  0
  9 12  1  0  0  0  0
  9 10  1  0  0  0  0
M  END
>  <SMILES>
OC.OC

>  <MoleculeName>
MeOHMeOH150

>  <Distance Scale>
1.5

>  <Energy Value>
-2.52

$$$$
/home/S66X8/3042_43UracilNeopentane200.xyz
 OpenBabel06262409173D

 29 28  0  0  0  0  0  0  0  0999 V2000
    0.6261   -0.8509    0.8059 N   0  0  0  0  0  0  0  0  0  0  0  0
    0.4092   -1.8115    1.0344 H   0  0  0  0  0  0  0  0  0  0  0  0
   -0.4325   -0.0873    0.2947 C   0  0  0  0  0  0  0  0  0  0  0  0
   -1.5308   -0.5884    0.1236 O   0  0  0  0  0  0  0  0  0  0  0  0
   -0.0669    1.2913    0.0196 C   0  0  0  0  0  0  0  0  0  0  0  0
   -0.8097    1.9518   -0.3928 H   0  0  0  0  0  0  0  0  0  0  0  0
    1.1835    1.7179    0.2905 C   0  0  0  0  0  0  0  0  0  0  0  0
    1.5019    2.7339    0.1098 H   0  0  0  0  0  0  0  0  0  0  0  0
    2.1341    0.8866    0.8191 N   0  0  0  0  0  0  0  0  0  0  0  0
    3.0553    1.2239    1.0434 H   0  0  0  0  0  0  0  0  0  0  0  0
    1.9028   -0.4432    1.1283 C   0  0  0  0  0  0  0  0  0  0  0  0
    2.7438   -1.1639    1.6286 O   0  0  0  0  0  0  0  0  0  0  0  0
   -1.6200   -0.0887    7.5218 C   0  0  0  0  0  0  0  0  0  0  0  0
   -2.9367    0.6525    7.7367 C   0  0  0  0  0  0  0  0  0  0  0  0
   -3.6438    0.0343    8.2915 H   0  0  0  0  0  0  0  0  0  0  0  0
   -2.7772    1.5727    8.3009 H   0  0  0  0  0  0  0  0  0  0  0  0
   -3.3944    0.9140    6.7815 H   0  0  0  0  0  0  0  0  0  0  0  0
   -1.0045   -0.4422    8.8731 C   0  0  0  0  0  0  0  0  0  0  0  0
   -0.0614   -0.9746    8.7423 H   0  0  0  0  0  0  0  0  0  0  0  0
   -0.8075    0.4576    9.4579 H   0  0  0  0  0  0  0  0  0  0  0  0
   -1.6758   -1.0799    9.4498 H   0  0  0  0  0  0  0  0  0  0  0  0
   -0.6549    0.8047    6.7460 C   0  0  0  0  0  0  0  0  0  0  0  0
    0.2937    0.2921    6.5757 H   0  0  0  0  0  0  0  0  0  0  0  0
   -0.4496    1.7229    7.2994 H   0  0  0  0  0  0  0  0  0  0  0  0
   -1.0772    1.0832    5.7785 H   0  0  0  0  0  0  0  0  0  0  0  0
   -1.8813   -1.3688    6.7314 C   0  0  0  0  0  0  0  0  0  0  0  0
   -2.3450   -1.1469    5.7688 H   0  0  0  0  0  0  0  0  0  0  0  0
   -0.9487   -1.9072    6.5518 H   0  0  0  0  0  0  0  0  0  0  0  0
   -2.5518   -2.0306    7.2816 H   0  0  0  0  0  0  0  0  0  0  0  0
  1  2  1  0  0  0  0
  1 11  1  0  0  0  0
  3  1  1  0  0  0  0
  4  3  2  0  0  0  0
  5  7  2  0  0  0  0
  5  3  1  0  0  0  0
  6  5  1  0  0  0  0
  7  9  1  0  0  0  0
  8  7  1  0  0  0  0
  9 10  1  0  0  0  0
  9 11  1  0  0  0  0
 11 12  2  0  0  0  0
 13 14  1  0  0  0  0
 13 18  1  0  0  0  0
 14 15  1  0  0  0  0
 14 16  1  0  0  0  0
 17 14  1  0  0  0  0
 18 21  1  0  0  0  0
 18 20  1  0  0  0  0
 19 18  1  0  0  0  0
 22 24  1  0  0  0  0
 22 13  1  0  0  0  0
 23 22  1  0  0  0  0
 25 22  1  0  0  0  0
 26 29  1  0  0  0  0
 26 13  1  0  0  0  0
 27 26  1  0  0  0  0
 28 26  1  0  0  0  0
M  END
>  <SMILES>
[nH]1c(=O)cc[nH]c1=O.C(C)(C)(C)C

>  <MoleculeName>
UracilNeopentane200

>  <Distance Scale>
2.0

>  <Energy Value>
-0.23

$$$$
/home/S66X8/3194_62PentaneAcNH2200.xyz
 OpenBabel06262409173D

 26 24  0  0  0  0  0  0  0  0999 V2000
   -2.5878   -0.3231    0.4695 C   0  0  0  0  0  0  0  0  0  0  0  0
   -2.6104   -0.8764   -0.4696 H   0  0  0  0  0  0  0  0  0  0  0  0
   -2.6597   -1.0519    1.2777 H   0  0  0  0  0  0  0  0  0  0  0  0
   -3.4760    0.3056    0.5090 H   0  0  0  0  0  0  0  0  0  0  0  0
   -1.3096    0.4974    0.5851 C   0  0  0  0  0  0  0  0  0  0  0  0
   -1.3173    1.0833    1.5063 H   0  0  0  0  0  0  0  0  0  0  0  0
   -1.2624    1.2156   -0.2368 H   0  0  0  0  0  0  0  0  0  0  0  0
   -0.0568   -0.3683    0.5584 C   0  0  0  0  0  0  0  0  0  0  0  0
   -0.0862   -1.0734    1.3959 H   0  0  0  0  0  0  0  0  0  0  0  0
   -0.0538   -0.9768   -0.3515 H   0  0  0  0  0  0  0  0  0  0  0  0
    1.2316    0.4401    0.6320 C   0  0  0  0  0  0  0  0  0  0  0  0
    1.2133    1.0536    1.5346 H   0  0  0  0  0  0  0  0  0  0  0  0
    1.2663    1.1314   -0.2131 H   0  0  0  0  0  0  0  0  0  0  0  0
    2.4726   -0.4431    0.6192 C   0  0  0  0  0  0  0  0  0  0  0  0
    2.5207   -1.0353   -0.2949 H   0  0  0  0  0  0  0  0  0  0  0  0
    3.3877    0.1441    0.6839 H   0  0  0  0  0  0  0  0  0  0  0  0
    2.4593   -1.1394    1.4586 H   0  0  0  0  0  0  0  0  0  0  0  0
    0.0978    0.3201    6.7312 C   0  0  0  0  0  0  0  0  0  0  0  0
    0.1247    1.5052    6.4393 O   0  0  0  0  0  0  0  0  0  0  0  0
    1.2303   -0.4317    6.8340 N   0  0  0  0  0  0  0  0  0  0  0  0
    2.1013   -0.0092    6.5653 H   0  0  0  0  0  0  0  0  0  0  0  0
    1.1914   -1.4236    6.9654 H   0  0  0  0  0  0  0  0  0  0  0  0
   -1.1925   -0.4188    6.9956 C   0  0  0  0  0  0  0  0  0  0  0  0
   -1.0452   -1.3795    7.4828 H   0  0  0  0  0  0  0  0  0  0  0  0
   -1.6987   -0.5771    6.0448 H   0  0  0  0  0  0  0  0  0  0  0  0
   -1.8304    0.2084    7.6109 H   0  0  0  0  0  0  0  0  0  0  0  0
  1  4  1  0  0  0  0
  1  5  1  0  0  0  0
  1  3  1  0  0  0  0
  2  1  1  0  0  0  0
  5  6  1  0  0  0  0
  7  5  1  0  0  0  0
  8  5  1  0  0  0  0
  8 11  1  0  0  0  0
  8  9  1  0  0  0  0
 10  8  1  0  0  0  0
 11 12  1  0  0  0  0
 13 11  1  0  0  0  0
 14 11  1  0  0  0  0
 14 16  1  0  0  0  0
 14 17  1  0  0  0  0
 15 14  1  0  0  0  0
 18 20  1  0  0  0  0
 18 23  1  0  0  0  0
 19 18  2  0  0  0  0
 20 22  1  0  0  0  0
 21 20  1  0  0  0  0
 23 24  1  0  0  0  0
 23 26  1  0  0  0  0
 25 23  1  0  0  0  0
M  END
>  <SMILES>
CCCCC.C(=O)(N)C

>  <MoleculeName>
PentaneAcNH2200

>  <Distance Scale>
2.0

>  <Energy Value>
-0.27

$$$$
/home/S66X8/2974_35NeopentanePentane105.xyz
 OpenBabel06262409173D

 34 32  0  0  0  0  0  0  0  0999 V2000
   -2.5304   -0.4176    0.6813 C   0  0  0  0  0  0  0  0  0  0  0  0
   -2.5599   -0.9828   -0.2502 H   0  0  0  0  0  0  0  0  0  0  0  0
   -2.5540   -1.1339    1.5027 H   0  0  0  0  0  0  0  0  0  0  0  0
   -3.4362    0.1841    0.7368 H   0  0  0  0  0  0  0  0  0  0  0  0
   -1.2762    0.4436    0.7500 C   0  0  0  0  0  0  0  0  0  0  0  0
   -1.2781    1.0252    1.6751 H   0  0  0  0  0  0  0  0  0  0  0  0
   -1.2803    1.1686   -0.0672 H   0  0  0  0  0  0  0  0  0  0  0  0
    0.0022   -0.3807    0.6790 C   0  0  0  0  0  0  0  0  0  0  0  0
    0.0078   -1.1114    1.4938 H   0  0  0  0  0  0  0  0  0  0  0  0
    0.0062   -0.9605   -0.2488 H   0  0  0  0  0  0  0  0  0  0  0  0
    1.2683    0.4624    0.7494 C   0  0  0  0  0  0  0  0  0  0  0  0
    1.2620    1.0443    1.6742 H   0  0  0  0  0  0  0  0  0  0  0  0
    1.2616    1.1871   -0.0680 H   0  0  0  0  0  0  0  0  0  0  0  0
    2.5350   -0.3804    0.6807 C   0  0  0  0  0  0  0  0  0  0  0  0
    2.5724   -0.9457   -0.2505 H   0  0  0  0  0  0  0  0  0  0  0  0
    3.4320    0.2344    0.7356 H   0  0  0  0  0  0  0  0  0  0  0  0
    2.5692   -1.0958    1.5025 H   0  0  0  0  0  0  0  0  0  0  0  0
   -0.0005    0.0692    5.4261 C   0  0  0  0  0  0  0  0  0  0  0  0
    0.0005   -0.0709    6.9458 C   0  0  0  0  0  0  0  0  0  0  0  0
   -0.8865    0.3932    7.3792 H   0  0  0  0  0  0  0  0  0  0  0  0
    0.0098   -1.1217    7.2389 H   0  0  0  0  0  0  0  0  0  0  0  0
    0.8792    0.4088    7.3795 H   0  0  0  0  0  0  0  0  0  0  0  0
   -1.2400   -0.6124    4.8522 C   0  0  0  0  0  0  0  0  0  0  0  0
   -1.2633   -0.5235    3.7654 H   0  0  0  0  0  0  0  0  0  0  0  0
   -1.2521   -1.6737    5.1052 H   0  0  0  0  0  0  0  0  0  0  0  0
   -2.1509   -0.1601    5.2473 H   0  0  0  0  0  0  0  0  0  0  0  0
    1.2521   -0.5883    4.8526 C   0  0  0  0  0  0  0  0  0  0  0  0
    1.2734   -0.5000    3.7657 H   0  0  0  0  0  0  0  0  0  0  0  0
    1.2852   -1.6489    5.1067 H   0  0  0  0  0  0  0  0  0  0  0  0
    2.1539   -0.1177    5.2471 H   0  0  0  0  0  0  0  0  0  0  0  0
   -0.0148    1.5490    5.0515 C   0  0  0  0  0  0  0  0  0  0  0  0
    0.8630    2.0596    5.4504 H   0  0  0  0  0  0  0  0  0  0  0  0
   -0.0153    1.6755    3.9678 H   0  0  0  0  0  0  0  0  0  0  0  0
   -0.9029    2.0424    5.4493 H   0  0  0  0  0  0  0  0  0  0  0  0
  1  4  1  0  0  0  0
  1  5  1  0  0  0  0
  1  3  1  0  0  0  0
  2  1  1  0  0  0  0
  5  6  1  0  0  0  0
  7  5  1  0  0  0  0
  8 11  1  0  0  0  0
  8  5  1  0  0  0  0
  8  9  1  0  0  0  0
 10  8  1  0  0  0  0
 11 12  1  0  0  0  0
 13 11  1  0  0  0  0
 14 16  1  0  0  0  0
 14 11  1  0  0  0  0
 14 17  1  0  0  0  0
 15 14  1  0  0  0  0
 18 19  1  0  0  0  0
 19 21  1  0  0  0  0
 19 20  1  0  0  0  0
 19 22  1  0  0  0  0
 23 25  1  0  0  0  0
 23 26  1  0  0  0  0
 23 18  1  0  0  0  0
 24 23  1  0  0  0  0
 27 29  1  0  0  0  0
 27 30  1  0  0  0  0
 27 18  1  0  0  0  0
 28 27  1  0  0  0  0
 31 18  1  0  0  0  0
 31 34  1  0  0  0  0
 31 32  1  0  0  0  0
 33 31  1  0  0  0  0
M  END
>  <SMILES>
CCCCC.C(C)(C)(C)C

>  <MoleculeName>
NeopentanePentane105

>  <Distance Scale>
1.05

>  <Energy Value>
-2.48

$$$$
/home/S66X8/3049_44EthenePentane150.xyz
 OpenBabel06262409173D

 23 21  0  0  0  0  0  0  0  0999 V2000
    0.6664    0.1838    0.4197 C   0  0  0  0  0  0  0  0  0  0  0  0
    1.2289   -0.3299    1.1863 H   0  0  0  0  0  0  0  0  0  0  0  0
    1.2280    0.6972   -0.3476 H   0  0  0  0  0  0  0  0  0  0  0  0
   -0.6660    0.1830    0.4196 C   0  0  0  0  0  0  0  0  0  0  0  0
   -1.2279   -0.3315    1.1861 H   0  0  0  0  0  0  0  0  0  0  0  0
   -1.2282    0.6956   -0.3477 H   0  0  0  0  0  0  0  0  0  0  0  0
   -2.5329   -0.4899    5.6254 C   0  0  0  0  0  0  0  0  0  0  0  0
   -2.5624   -1.1029    4.7242 H   0  0  0  0  0  0  0  0  0  0  0  0
   -2.5690   -1.1641    6.4810 H   0  0  0  0  0  0  0  0  0  0  0  0
   -3.4340    0.1211    5.6426 H   0  0  0  0  0  0  0  0  0  0  0  0
   -1.2714    0.3628    5.6612 C   0  0  0  0  0  0  0  0  0  0  0  0
   -1.2718    0.9829    6.5606 H   0  0  0  0  0  0  0  0  0  0  0  0
   -1.2630    1.0497    4.8122 H   0  0  0  0  0  0  0  0  0  0  0  0
   -0.0002   -0.4748    5.6343 C   0  0  0  0  0  0  0  0  0  0  0  0
   -0.0003   -1.1614    6.4861 H   0  0  0  0  0  0  0  0  0  0  0  0
   -0.0000   -1.1023    4.7376 H   0  0  0  0  0  0  0  0  0  0  0  0
    1.2711    0.3628    5.6617 C   0  0  0  0  0  0  0  0  0  0  0  0
    1.2713    0.9826    6.5612 H   0  0  0  0  0  0  0  0  0  0  0  0
    1.2629    1.0499    4.8128 H   0  0  0  0  0  0  0  0  0  0  0  0
    2.5325   -0.4899    5.6259 C   0  0  0  0  0  0  0  0  0  0  0  0
    2.5621   -1.1028    4.7245 H   0  0  0  0  0  0  0  0  0  0  0  0
    3.4337    0.1210    5.6434 H   0  0  0  0  0  0  0  0  0  0  0  0
    2.5684   -1.1644    6.4814 H   0  0  0  0  0  0  0  0  0  0  0  0
  1  2  1  0  0  0  0
  3  1  1  0  0  0  0
  4  1  2  0  0  0  0
  4  5  1  0  0  0  0
  6  4  1  0  0  0  0
  7 10  1  0  0  0  0
  7 11  1  0  0  0  0
  7  9  1  0  0  0  0
  8  7  1  0  0  0  0
 11 12  1  0  0  0  0
 13 11  1  0  0  0  0
 14 11  1  0  0  0  0
 14 17  1  0  0  0  0
 14 15  1  0  0  0  0
 16 14  1  0  0  0  0
 17 18  1  0  0  0  0
 19 17  1  0  0  0  0
 20 22  1  0  0  0  0
 20 17  1  0  0  0  0
 20 23  1  0  0  0  0
 21 20  1  0  0  0  0
M  END
>  <SMILES>
C=C.CCCCC

>  <MoleculeName>
EthenePentane150

>  <Distance Scale>
1.5

>  <Energy Value>
-0.49

$$$$
/home/S66X8/3117_53BenzeneAcNH2NHpi100.xyz
 OpenBabel06262409173D

 21 20  0  0  0  0  0  0  0  0999 V2000
    0.8556    0.3585    1.0498 C   0  0  0  0  0  0  0  0  0  0  0  0
    1.5138    0.9027    1.7128 H   0  0  0  0  0  0  0  0  0  0  0  0
    1.3429   -0.6754    0.2512 C   0  0  0  0  0  0  0  0  0  0  0  0
    2.3929   -0.9333    0.2820 H   0  0  0  0  0  0  0  0  0  0  0  0
    0.4778   -1.3767   -0.5878 C   0  0  0  0  0  0  0  0  0  0  0  0
    0.8561   -2.1789   -1.2068 H   0  0  0  0  0  0  0  0  0  0  0  0
   -0.8748   -1.0426   -0.6305 C   0  0  0  0  0  0  0  0  0  0  0  0
   -1.5454   -1.5857   -1.2824 H   0  0  0  0  0  0  0  0  0  0  0  0
   -1.3624   -0.0070    0.1658 C   0  0  0  0  0  0  0  0  0  0  0  0
   -2.4116    0.2535    0.1308 H   0  0  0  0  0  0  0  0  0  0  0  0
   -0.4984    0.6932    1.0070 C   0  0  0  0  0  0  0  0  0  0  0  0
   -0.8661    1.4903    1.6380 H   0  0  0  0  0  0  0  0  0  0  0  0
    0.0783    0.4860    4.8252 C   0  0  0  0  0  0  0  0  0  0  0  0
    0.3248    1.5294    4.2380 O   0  0  0  0  0  0  0  0  0  0  0  0
   -0.2258   -0.6690    4.1741 N   0  0  0  0  0  0  0  0  0  0  0  0
   -0.2006   -0.6760    3.1674 H   0  0  0  0  0  0  0  0  0  0  0  0
   -0.3815   -1.5245    4.6698 H   0  0  0  0  0  0  0  0  0  0  0  0
    0.1011    0.3911    6.3337 C   0  0  0  0  0  0  0  0  0  0  0  0
    1.1329    0.4753    6.6687 H   0  0  0  0  0  0  0  0  0  0  0  0
   -0.3208   -0.5355    6.7147 H   0  0  0  0  0  0  0  0  0  0  0  0
   -0.4483    1.2350    6.7404 H   0  0  0  0  0  0  0  0  0  0  0  0
  1  2  1  0  0  0  0
  3  4  1  0  0  0  0
  3  1  2  0  0  0  0
  5  3  1  0  0  0  0
  6  5  1  0  0  0  0
  7  5  2  0  0  0  0
  7  9  1  0  0  0  0
  8  7  1  0  0  0  0
  9 11  2  0  0  0  0
 10  9  1  0  0  0  0
 11  1  1  0  0  0  0
 11 12  1  0  0  0  0
 13 18  1  0  0  0  0
 14 13  2  0  0  0  0
 15 17  1  0  0  0  0
 15 13  1  0  0  0  0
 16 15  1  0  0  0  0
 18 19  1  0  0  0  0
 18 20  1  0  0  0  0
 18 21  1  0  0  0  0
M  END
>  <SMILES>
c1ccccc1.C(=O)(N)C

>  <MoleculeName>
BenzeneAcNH2NHpi100

>  <Distance Scale>
1.0

>  <Energy Value>
-4.36

$$$$
/home/S66X8/3006_39BenzeneCyclopentane105.xyz
 OpenBabel06262409173D

 27 27  0  0  0  0  0  0  0  0999 V2000
    0.7655    0.8682    0.8210 C   0  0  0  0  0  0  0  0  0  0  0  0
    1.4375    1.6800    1.0651 H   0  0  0  0  0  0  0  0  0  0  0  0
    1.2377   -0.4428    0.7939 C   0  0  0  0  0  0  0  0  0  0  0  0
    2.2758   -0.6485    1.0177 H   0  0  0  0  0  0  0  0  0  0  0  0
    0.3722   -1.4885    0.4773 C   0  0  0  0  0  0  0  0  0  0  0  0
    0.7382   -2.5061    0.4571 H   0  0  0  0  0  0  0  0  0  0  0  0
   -0.9649   -1.2230    0.1869 C   0  0  0  0  0  0  0  0  0  0  0  0
   -1.6365   -2.0346   -0.0578 H   0  0  0  0  0  0  0  0  0  0  0  0
   -1.4371    0.0884    0.2133 C   0  0  0  0  0  0  0  0  0  0  0  0
   -2.4747    0.2943   -0.0115 H   0  0  0  0  0  0  0  0  0  0  0  0
   -0.5719    1.1340    0.5308 C   0  0  0  0  0  0  0  0  0  0  0  0
   -0.9377    2.1517    0.5511 H   0  0  0  0  0  0  0  0  0  0  0  0
   -0.7573   -0.7160    4.1949 C   0  0  0  0  0  0  0  0  0  0  0  0
   -0.8636   -0.5410    3.1226 H   0  0  0  0  0  0  0  0  0  0  0  0
   -1.4090   -1.5452    4.4681 H   0  0  0  0  0  0  0  0  0  0  0  0
    0.7122   -0.9730    4.5391 C   0  0  0  0  0  0  0  0  0  0  0  0
    1.2074   -1.6106    3.8085 H   0  0  0  0  0  0  0  0  0  0  0  0
    0.7755   -1.4732    5.5065 H   0  0  0  0  0  0  0  0  0  0  0  0
    1.3523    0.4324    4.6300 C   0  0  0  0  0  0  0  0  0  0  0  0
    2.0026    0.6250    3.7782 H   0  0  0  0  0  0  0  0  0  0  0  0
    1.9652    0.5215    5.5257 H   0  0  0  0  0  0  0  0  0  0  0  0
    0.1733    1.4316    4.6569 C   0  0  0  0  0  0  0  0  0  0  0  0
    0.0561    1.8905    3.6746 H   0  0  0  0  0  0  0  0  0  0  0  0
    0.3189    2.2331    5.3793 H   0  0  0  0  0  0  0  0  0  0  0  0
   -1.0605    0.5745    4.9525 C   0  0  0  0  0  0  0  0  0  0  0  0
   -1.9915    1.0502    4.6466 H   0  0  0  0  0  0  0  0  0  0  0  0
   -1.1259    0.3651    6.0231 H   0  0  0  0  0  0  0  0  0  0  0  0
  1  2  1  0  0  0  0
  3  1  1  0  0  0  0
  3  4  1  0  0  0  0
  5  3  2  0  0  0  0
  6  5  1  0  0  0  0
  7  9  2  0  0  0  0
  7  5  1  0  0  0  0
  8  7  1  0  0  0  0
  9 11  1  0  0  0  0
 10  9  1  0  0  0  0
 11 12  1  0  0  0  0
 11  1  2  0  0  0  0
 13 15  1  0  0  0  0
 13 16  1  0  0  0  0
 13 25  1  0  0  0  0
 14 13  1  0  0  0  0
 16 19  1  0  0  0  0
 16 18  1  0  0  0  0
 17 16  1  0  0  0  0
 19 22  1  0  0  0  0
 19 21  1  0  0  0  0
 20 19  1  0  0  0  0
 22 25  1  0  0  0  0
 22 24  1  0  0  0  0
 23 22  1  0  0  0  0
 25 27  1  0  0  0  0
 26 25  1  0  0  0  0
M  END
>  <SMILES>
c1ccccc1.C1CCCC1

>  <MoleculeName>
BenzeneCyclopentane105

>  <Distance Scale>
1.05

>  <Energy Value>
-3.47

$$$$
/home/S66X8/2726_04WaterPeptide105.xyz
 OpenBabel06262409173D

 15 13  0  0  0  0  0  0  0  0999 V2000
   -0.3920   -0.3847    0.0761 O   0  0  0  0  0  0  0  0  0  0  0  0
   -0.9115    0.4138    0.1776 H   0  0  0  0  0  0  0  0  0  0  0  0
    0.5249   -0.0685    0.0905 H   0  0  0  0  0  0  0  0  0  0  0  0
    2.3356   -2.2308   -0.2327 C   0  0  0  0  0  0  0  0  0  0  0  0
    2.9855   -3.0919   -0.3656 H   0  0  0  0  0  0  0  0  0  0  0  0
    1.6546   -2.1533   -1.0765 H   0  0  0  0  0  0  0  0  0  0  0  0
    1.7226   -2.3696    0.6543 H   0  0  0  0  0  0  0  0  0  0  0  0
    3.0903   -0.9328   -0.1001 C   0  0  0  0  0  0  0  0  0  0  0  0
    2.5136    0.1425    0.0565 O   0  0  0  0  0  0  0  0  0  0  0  0
    4.4409   -1.0303   -0.1647 N   0  0  0  0  0  0  0  0  0  0  0  0
    4.8419   -1.9408   -0.2942 H   0  0  0  0  0  0  0  0  0  0  0  0
    5.3092    0.1217   -0.0553 C   0  0  0  0  0  0  0  0  0  0  0  0
    4.6727    0.9900    0.0795 H   0  0  0  0  0  0  0  0  0  0  0  0
    5.9748    0.0303    0.8008 H   0  0  0  0  0  0  0  0  0  0  0  0
    5.9037    0.2511   -0.9575 H   0  0  0  0  0  0  0  0  0  0  0  0
  1  3  1  0  0  0  0
  1  2  1  0  0  0  0
  4  8  1  0  0  0  0
  4  7  1  0  0  0  0
  5  4  1  0  0  0  0
  6  4  1  0  0  0  0
  8  9  2  0  0  0  0
 10  8  1  0  0  0  0
 10 12  1  0  0  0  0
 11 10  1  0  0  0  0
 12 13  1  0  0  0  0
 12 14  1  0  0  0  0
 15 12  1  0  0  0  0
M  END
>  <SMILES>
O.CC(=O)NC

>  <MoleculeName>
WaterPeptide105

>  <Distance Scale>
1.05

>  <Energy Value>
-7.84

$$$$
/home/S66X8/3062_46PeptidePentane105.xyz
 OpenBabel06262409173D

 29 27  0  0  0  0  0  0  0  0999 V2000
    1.3722    1.0125    0.9708 C   0  0  0  0  0  0  0  0  0  0  0  0
    0.9522    2.0140    1.0331 H   0  0  0  0  0  0  0  0  0  0  0  0
    1.9474    0.9265    0.0507 H   0  0  0  0  0  0  0  0  0  0  0  0
    2.0517    0.8518    1.8030 H   0  0  0  0  0  0  0  0  0  0  0  0
    0.3267   -0.0776    0.9882 C   0  0  0  0  0  0  0  0  0  0  0  0
    0.6188   -1.2525    1.1713 O   0  0  0  0  0  0  0  0  0  0  0  0
   -0.9500    0.3449    0.7739 N   0  0  0  0  0  0  0  0  0  0  0  0
   -1.1047    1.3220    0.6061 H   0  0  0  0  0  0  0  0  0  0  0  0
   -2.0599   -0.5774    0.6802 C   0  0  0  0  0  0  0  0  0  0  0  0
   -1.6694   -1.5668    0.8972 H   0  0  0  0  0  0  0  0  0  0  0  0
   -2.8346   -0.3314    1.4037 H   0  0  0  0  0  0  0  0  0  0  0  0
   -2.4910   -0.5789   -0.3199 H   0  0  0  0  0  0  0  0  0  0  0  0
    2.6757    0.4732    5.0289 C   0  0  0  0  0  0  0  0  0  0  0  0
    2.7925    1.2277    4.2502 H   0  0  0  0  0  0  0  0  0  0  0  0
    2.5895    0.9981    5.9806 H   0  0  0  0  0  0  0  0  0  0  0  0
    3.5877   -0.1210    5.0557 H   0  0  0  0  0  0  0  0  0  0  0  0
    1.4474   -0.3902    4.7714 C   0  0  0  0  0  0  0  0  0  0  0  0
    1.3528   -1.1356    5.5644 H   0  0  0  0  0  0  0  0  0  0  0  0
    1.5638   -0.9436    3.8375 H   0  0  0  0  0  0  0  0  0  0  0  0
    0.1648    0.4285    4.7061 C   0  0  0  0  0  0  0  0  0  0  0  0
    0.0533    1.0062    5.6291 H   0  0  0  0  0  0  0  0  0  0  0  0
    0.2441    1.1613    3.8964 H   0  0  0  0  0  0  0  0  0  0  0  0
   -1.0795   -0.4219    4.4892 C   0  0  0  0  0  0  0  0  0  0  0  0
   -1.1703   -1.1364    5.3106 H   0  0  0  0  0  0  0  0  0  0  0  0
   -0.9517   -1.0108    3.5790 H   0  0  0  0  0  0  0  0  0  0  0  0
   -2.3464    0.4184    4.3991 C   0  0  0  0  0  0  0  0  0  0  0  0
   -2.2794    1.1255    3.5713 H   0  0  0  0  0  0  0  0  0  0  0  0
   -3.2317   -0.1976    4.2452 H   0  0  0  0  0  0  0  0  0  0  0  0
   -2.4967    0.9946    5.3123 H   0  0  0  0  0  0  0  0  0  0  0  0
  1  5  1  0  0  0  0
  1  2  1  0  0  0  0
  1  4  1  0  0  0  0
  3  1  1  0  0  0  0
  5  6  2  0  0  0  0
  7  5  1  0  0  0  0
  8  7  1  0  0  0  0
  9  7  1  0  0  0  0
  9 10  1  0  0  0  0
  9 11  1  0  0  0  0
 12  9  1  0  0  0  0
 13 16  1  0  0  0  0
 13 15  1  0  0  0  0
 14 13  1  0  0  0  0
 17 13  1  0  0  0  0
 17 18  1  0  0  0  0
 19 17  1  0  0  0  0
 20 17  1  0  0  0  0
 20 21  1  0  0  0  0
 22 20  1  0  0  0  0
 23 20  1  0  0  0  0
 23 24  1  0  0  0  0
 25 23  1  0  0  0  0
 26 23  1  0  0  0  0
 26 29  1  0  0  0  0
 27 26  1  0  0  0  0
 28 26  1  0  0  0  0
M  END
>  <SMILES>
CC(=O)NC.CCCCC

>  <MoleculeName>
PeptidePentane105

>  <Distance Scale>
1.05

>  <Energy Value>
-4.05

$$$$
/home/S66X8/2915_28BenzeneUracilpipi090.xyz
 OpenBabel06262409173D

 24 24  0  0  0  0  0  0  0  0999 V2000
    0.8258    1.2365   -0.0403 C   0  0  0  0  0  0  0  0  0  0  0  0
    1.5210    2.0631   -0.0825 H   0  0  0  0  0  0  0  0  0  0  0  0
    1.3002   -0.0629    0.1273 C   0  0  0  0  0  0  0  0  0  0  0  0
    2.3637   -0.2423    0.2077 H   0  0  0  0  0  0  0  0  0  0  0  0
    0.4035   -1.1286    0.1982 C   0  0  0  0  0  0  0  0  0  0  0  0
    0.7738   -2.1374    0.3241 H   0  0  0  0  0  0  0  0  0  0  0  0
   -0.9678   -0.8952    0.1031 C   0  0  0  0  0  0  0  0  0  0  0  0
   -1.6652   -1.7200    0.1604 H   0  0  0  0  0  0  0  0  0  0  0  0
   -1.4435    0.4045   -0.0624 C   0  0  0  0  0  0  0  0  0  0  0  0
   -2.5075    0.5855   -0.1242 H   0  0  0  0  0  0  0  0  0  0  0  0
   -0.5458    1.4688   -0.1362 C   0  0  0  0  0  0  0  0  0  0  0  0
   -0.9142    2.4774   -0.2679 H   0  0  0  0  0  0  0  0  0  0  0  0
   -0.2875    0.7071    2.8849 N   0  0  0  0  0  0  0  0  0  0  0  0
   -0.6608    1.6089    2.6220 H   0  0  0  0  0  0  0  0  0  0  0  0
    1.1046    0.6341    3.0169 C   0  0  0  0  0  0  0  0  0  0  0  0
    1.7955    1.6286    2.8721 O   0  0  0  0  0  0  0  0  0  0  0  0
    1.5835   -0.6999    3.3350 C   0  0  0  0  0  0  0  0  0  0  0  0
    2.6406   -0.8522    3.4691 H   0  0  0  0  0  0  0  0  0  0  0  0
    0.7038   -1.7143    3.4612 C   0  0  0  0  0  0  0  0  0  0  0  0
    1.0097   -2.7227    3.6978 H   0  0  0  0  0  0  0  0  0  0  0  0
   -0.6414   -1.5293    3.2911 N   0  0  0  0  0  0  0  0  0  0  0  0
   -1.2902   -2.2919    3.3900 H   0  0  0  0  0  0  0  0  0  0  0  0
   -1.2159   -0.3045    2.9917 C   0  0  0  0  0  0  0  0  0  0  0  0
   -2.4137   -0.1537    2.8496 O   0  0  0  0  0  0  0  0  0  0  0  0
  1  3  1  0  0  0  0
  2  1  1  0  0  0  0
  3  5  2  0  0  0  0
  3  4  1  0  0  0  0
  5  6  1  0  0  0  0
  7  8  1  0  0  0  0
  7  5  1  0  0  0  0
  9  7  2  0  0  0  0
 10  9  1  0  0  0  0
 11  9  1  0  0  0  0
 11  1  2  0  0  0  0
 12 11  1  0  0  0  0
 13 23  1  0  0  0  0
 13 15  1  0  0  0  0
 14 13  1  0  0  0  0
 15 17  1  0  0  0  0
 16 15  2  0  0  0  0
 17 19  2  0  0  0  0
 17 18  1  0  0  0  0
 19 20  1  0  0  0  0
 21 22  1  0  0  0  0
 21 19  1  0  0  0  0
 23 21  1  0  0  0  0
 24 23  2  0  0  0  0
M  END
>  <SMILES>
c1ccccc1.[nH]1c(=O)cc[nH]c1=O

>  <MoleculeName>
BenzeneUracilpipi090

>  <Distance Scale>
0.9

>  <Energy Value>
-3.53

$$$$
/home/S66X8/2988_37CyclopentaneNeopentane095.xyz
 OpenBabel06262409173D

 32 31  0  0  0  0  0  0  0  0999 V2000
    0.7999   -1.0221    0.6877 C   0  0  0  0  0  0  0  0  0  0  0  0
    0.8536   -1.1221   -0.3980 H   0  0  0  0  0  0  0  0  0  0  0  0
    1.4914   -1.7442    1.1197 H   0  0  0  0  0  0  0  0  0  0  0  0
    1.1169    0.4250    1.0997 C   0  0  0  0  0  0  0  0  0  0  0  0
    1.8381    0.8901    0.4305 H   0  0  0  0  0  0  0  0  0  0  0  0
    1.5556    0.4398    2.0971 H   0  0  0  0  0  0  0  0  0  0  0  0
   -0.2446    1.1657    1.1030 C   0  0  0  0  0  0  0  0  0  0  0  0
   -0.2581    2.0009    0.4053 H   0  0  0  0  0  0  0  0  0  0  0  0
   -0.4488    1.5770    2.0910 H   0  0  0  0  0  0  0  0  0  0  0  0
   -1.2987    0.1038    0.7393 C   0  0  0  0  0  0  0  0  0  0  0  0
   -1.4736    0.1052   -0.3380 H   0  0  0  0  0  0  0  0  0  0  0  0
   -2.2567    0.2780    1.2272 H   0  0  0  0  0  0  0  0  0  0  0  0
   -0.6469   -1.2201    1.1363 C   0  0  0  0  0  0  0  0  0  0  0  0
   -1.1244   -2.0876    0.6830 H   0  0  0  0  0  0  0  0  0  0  0  0
   -0.6860   -1.3453    2.2202 H   0  0  0  0  0  0  0  0  0  0  0  0
    0.0461    0.0869    5.4475 C   0  0  0  0  0  0  0  0  0  0  0  0
   -0.0503   -0.0652    6.9631 C   0  0  0  0  0  0  0  0  0  0  0  0
    0.9423   -0.0807    7.4155 H   0  0  0  0  0  0  0  0  0  0  0  0
   -0.6092    0.7627    7.4016 H   0  0  0  0  0  0  0  0  0  0  0  0
   -0.5574   -0.9939    7.2285 H   0  0  0  0  0  0  0  0  0  0  0  0
    0.7601    1.3938    5.1119 C   0  0  0  0  0  0  0  0  0  0  0  0
    0.8417    1.5273    4.0322 H   0  0  0  0  0  0  0  0  0  0  0  0
    0.2167    2.2485    5.5174 H   0  0  0  0  0  0  0  0  0  0  0  0
    1.7677    1.4044    5.5301 H   0  0  0  0  0  0  0  0  0  0  0  0
   -1.3589    0.1067    4.8502 C   0  0  0  0  0  0  0  0  0  0  0  0
   -1.3220    0.2239    3.7663 H   0  0  0  0  0  0  0  0  0  0  0  0
   -1.9412    0.9341    5.2585 H   0  0  0  0  0  0  0  0  0  0  0  0
   -1.8888   -0.8211    5.0715 H   0  0  0  0  0  0  0  0  0  0  0  0
    0.8340   -1.0866    4.8701 C   0  0  0  0  0  0  0  0  0  0  0  0
    0.3388   -2.0336    5.0904 H   0  0  0  0  0  0  0  0  0  0  0  0
    0.9288   -0.9994    3.7870 H   0  0  0  0  0  0  0  0  0  0  0  0
    1.8387   -1.1240    5.2939 H   0  0  0  0  0  0  0  0  0  0  0  0
  1  4  1  0  0  0  0
  1  3  1  0  0  0  0
  1 13  1  0  0  0  0
  2  1  1  0  0  0  0
  4  7  1  0  0  0  0
  4  6  1  0  0  0  0
  5  4  1  0  0  0  0
  7  9  1  0  0  0  0
  8  7  1  0  0  0  0
 10  7  1  0  0  0  0
 10 13  1  0  0  0  0
 10 12  1  0  0  0  0
 11 10  1  0  0  0  0
 13 15  1  0  0  0  0
 14 13  1  0  0  0  0
 16 17  1  0  0  0  0
 17 20  1  0  0  0  0
 17 19  1  0  0  0  0
 17 18  1  0  0  0  0
 21 16  1  0  0  0  0
 21 23  1  0  0  0  0
 21 24  1  0  0  0  0
 22 21  1  0  0  0  0
 25 28  1  0  0  0  0
 25 27  1  0  0  0  0
 25 16  1  0  0  0  0
 26 25  1  0  0  0  0
 29 30  1  0  0  0  0
 29 32  1  0  0  0  0
 29 16  1  0  0  0  0
 31 29  1  0  0  0  0
M  END
>  <SMILES>
C1CCCC1.C(C)(C)(C)C

>  <MoleculeName>
CyclopentaneNeopentane095

>  <Distance Scale>
0.95

>  <Energy Value>
-2.25

$$$$
/home/S66X8/2891_25PyridinePyridinepipi090.xyz
 OpenBabel06262409173D

 22 22  0  0  0  0  0  0  0  0999 V2000
    1.5725    0.2545   -0.2565 N   0  0  0  0  0  0  0  0  0  0  0  0
    0.9694   -0.9032    0.0445 C   0  0  0  0  0  0  0  0  0  0  0  0
    1.6136   -1.7722    0.1023 H   0  0  0  0  0  0  0  0  0  0  0  0
   -0.3982   -1.0288    0.2810 C   0  0  0  0  0  0  0  0  0  0  0  0
   -0.8184   -1.9917    0.5336 H   0  0  0  0  0  0  0  0  0  0  0  0
   -1.1958    0.1066    0.1954 C   0  0  0  0  0  0  0  0  0  0  0  0
   -2.2607    0.0495    0.3734 H   0  0  0  0  0  0  0  0  0  0  0  0
   -0.5871    1.3174   -0.1201 C   0  0  0  0  0  0  0  0  0  0  0  0
   -1.1618    2.2295   -0.2005 H   0  0  0  0  0  0  0  0  0  0  0  0
    0.7885    1.3397   -0.3322 C   0  0  0  0  0  0  0  0  0  0  0  0
    1.2884    2.2688   -0.5785 H   0  0  0  0  0  0  0  0  0  0  0  0
   -0.4840   -1.4736    3.4097 N   0  0  0  0  0  0  0  0  0  0  0  0
   -1.4164   -0.5130    3.4836 C   0  0  0  0  0  0  0  0  0  0  0  0
   -2.4192   -0.8440    3.7258 H   0  0  0  0  0  0  0  0  0  0  0  0
   -1.1544    0.8381    3.2742 C   0  0  0  0  0  0  0  0  0  0  0  0
   -1.9530    1.5626    3.3525 H   0  0  0  0  0  0  0  0  0  0  0  0
    0.1450    1.2273    2.9639 C   0  0  0  0  0  0  0  0  0  0  0  0
    0.3870    2.2663    2.7881 H   0  0  0  0  0  0  0  0  0  0  0  0
    1.1246    0.2444    2.8806 C   0  0  0  0  0  0  0  0  0  0  0  0
    2.1469    0.4912    2.6321 H   0  0  0  0  0  0  0  0  0  0  0  0
    0.7621   -1.0807    3.1138 C   0  0  0  0  0  0  0  0  0  0  0  0
    1.5059   -1.8663    3.0573 H   0  0  0  0  0  0  0  0  0  0  0  0
  1  2  1  0  0  0  0
  2  3  1  0  0  0  0
  2  4  2  0  0  0  0
  4  5  1  0  0  0  0
  6  4  1  0  0  0  0
  6  7  1  0  0  0  0
  8  6  2  0  0  0  0
  9  8  1  0  0  0  0
 10  1  2  0  0  0  0
 10  8  1  0  0  0  0
 11 10  1  0  0  0  0
 12 13  1  0  0  0  0
 13 14  1  0  0  0  0
 15 16  1  0  0  0  0
 15 13  2  0  0  0  0
 17 15  1  0  0  0  0
 18 17  1  0  0  0  0
 19 17  2  0  0  0  0
 19 21  1  0  0  0  0
 20 19  1  0  0  0  0
 21 12  2  0  0  0  0
 22 21  1  0  0  0  0
M  END
>  <SMILES>
n1ccccc1.n1ccccc1

>  <MoleculeName>
PyridinePyridinepipi090

>  <Distance Scale>
0.9

>  <Energy Value>
-1.32

$$$$
/home/S66X8/2909_27BenzenePyridinepipi100.xyz
 OpenBabel06262409173D

 23 23  0  0  0  0  0  0  0  0999 V2000
    0.8187    0.8642    0.1883 C   0  0  0  0  0  0  0  0  0  0  0  0
    1.4661    1.7167    0.3447 H   0  0  0  0  0  0  0  0  0  0  0  0
    1.3690   -0.3905   -0.0667 C   0  0  0  0  0  0  0  0  0  0  0  0
    2.4430   -0.5119   -0.1106 H   0  0  0  0  0  0  0  0  0  0  0  0
    0.5344   -1.4885   -0.2719 C   0  0  0  0  0  0  0  0  0  0  0  0
    0.9608   -2.4616   -0.4755 H   0  0  0  0  0  0  0  0  0  0  0  0
   -0.8491   -1.3305   -0.2199 C   0  0  0  0  0  0  0  0  0  0  0  0
   -1.4971   -2.1819   -0.3796 H   0  0  0  0  0  0  0  0  0  0  0  0
   -1.3995   -0.0760    0.0404 C   0  0  0  0  0  0  0  0  0  0  0  0
   -2.4727    0.0449    0.0934 H   0  0  0  0  0  0  0  0  0  0  0  0
   -0.5653    1.0214    0.2423 C   0  0  0  0  0  0  0  0  0  0  0  0
   -0.9926    1.9937    0.4463 H   0  0  0  0  0  0  0  0  0  0  0  0
   -2.3729    0.1496    3.4274 N   0  0  0  0  0  0  0  0  0  0  0  0
   -1.7580    1.3073    3.7074 C   0  0  0  0  0  0  0  0  0  0  0  0
   -2.4056    2.1605    3.8699 H   0  0  0  0  0  0  0  0  0  0  0  0
   -0.3758    1.4481    3.7976 C   0  0  0  0  0  0  0  0  0  0  0  0
    0.0561    2.4118    4.0288 H   0  0  0  0  0  0  0  0  0  0  0  0
    0.4252    0.3312    3.5834 C   0  0  0  0  0  0  0  0  0  0  0  0
    1.5028    0.4015    3.6382 H   0  0  0  0  0  0  0  0  0  0  0  0
   -0.1954   -0.8775    3.2897 C   0  0  0  0  0  0  0  0  0  0  0  0
    0.3804   -1.7731    3.1057 H   0  0  0  0  0  0  0  0  0  0  0  0
   -1.5859   -0.9155    3.2243 C   0  0  0  0  0  0  0  0  0  0  0  0
   -2.0947   -1.8440    2.9954 H   0  0  0  0  0  0  0  0  0  0  0  0
  1 11  1  0  0  0  0
  1  2  1  0  0  0  0
  3  1  2  0  0  0  0
  4  3  1  0  0  0  0
  5  7  2  0  0  0  0
  5  3  1  0  0  0  0
  6  5  1  0  0  0  0
  7  9  1  0  0  0  0
  8  7  1  0  0  0  0
  9 10  1  0  0  0  0
  9 11  2  0  0  0  0
 11 12  1  0  0  0  0
 13 14  1  0  0  0  0
 14 16  2  0  0  0  0
 14 15  1  0  0  0  0
 16 17  1  0  0  0  0
 18 19  1  0  0  0  0
 18 16  1  0  0  0  0
 20 18  2  0  0  0  0
 21 20  1  0  0  0  0
 22 20  1  0  0  0  0
 22 13  2  0  0  0  0
 23 22  1  0  0  0  0
M  END
>  <SMILES>
c1ccccc1.n1ccccc1

>  <MoleculeName>
BenzenePyridinepipi100

>  <Distance Scale>
1.0

>  <Energy Value>
-3.37

$$$$
/home/S66X8/2720_03WaterMeNH2125.xyz
 OpenBabel06262409173D

 10  8  0  0  0  0  0  0  0  0999 V2000
   -0.6875   -0.1117   -0.0196 O   0  0  0  0  0  0  0  0  0  0  0  0
   -1.0461    0.7759    0.0127 H   0  0  0  0  0  0  0  0  0  0  0  0
    0.2740    0.0259   -0.0035 H   0  0  0  0  0  0  0  0  0  0  0  0
    2.7871    0.1250    0.0085 N   0  0  0  0  0  0  0  0  0  0  0  0
    3.0825   -0.4276   -0.7863 H   0  0  0  0  0  0  0  0  0  0  0  0
    3.0972   -0.3857    0.8254 H   0  0  0  0  0  0  0  0  0  0  0  0
    3.4464    1.4334   -0.0317 C   0  0  0  0  0  0  0  0  0  0  0  0
    3.1359    2.0151    0.8328 H   0  0  0  0  0  0  0  0  0  0  0  0
    4.5378    1.3941   -0.0407 H   0  0  0  0  0  0  0  0  0  0  0  0
    3.1197    1.9693   -0.9196 H   0  0  0  0  0  0  0  0  0  0  0  0
  1  3  1  0  0  0  0
  1  2  1  0  0  0  0
  4  6  1  0  0  0  0
  5  4  1  0  0  0  0
  7  4  1  0  0  0  0
  7  8  1  0  0  0  0
  9  7  1  0  0  0  0
 10  7  1  0  0  0  0
M  END
>  <SMILES>
O.NC

>  <MoleculeName>
WaterMeNH2125

>  <Distance Scale>
1.25

>  <Energy Value>
-4.92

$$$$
/home/S66X8/2870_22AcOHUracil105.xyz
 OpenBabel06262409173D

 20 19  0  0  0  0  0  0  0  0999 V2000
   -1.1136    1.3270    0.2752 C   0  0  0  0  0  0  0  0  0  0  0  0
   -0.4671    2.3494    0.4615 O   0  0  0  0  0  0  0  0  0  0  0  0
   -0.5781    0.1369    0.0496 O   0  0  0  0  0  0  0  0  0  0  0  0
    0.4133    0.2033    0.0555 H   0  0  0  0  0  0  0  0  0  0  0  0
   -2.6114    1.2862    0.2774 C   0  0  0  0  0  0  0  0  0  0  0  0
   -3.0066    2.2769    0.4658 H   0  0  0  0  0  0  0  0  0  0  0  0
   -2.9643    0.9153   -0.6820 H   0  0  0  0  0  0  0  0  0  0  0  0
   -2.9531    0.5918    1.0412 H   0  0  0  0  0  0  0  0  0  0  0  0
    4.2823    1.0903    0.1825 N   0  0  0  0  0  0  0  0  0  0  0  0
    4.6755    0.1749    0.0108 H   0  0  0  0  0  0  0  0  0  0  0  0
    5.2039    2.1384    0.3640 C   0  0  0  0  0  0  0  0  0  0  0  0
    6.4010    1.9201    0.3111 O   0  0  0  0  0  0  0  0  0  0  0  0
    4.5648    3.4179    0.6046 C   0  0  0  0  0  0  0  0  0  0  0  0
    5.1843    4.2848    0.7561 H   0  0  0  0  0  0  0  0  0  0  0  0
    3.2177    3.4979    0.6340 C   0  0  0  0  0  0  0  0  0  0  0  0
    2.6949    4.4263    0.8093 H   0  0  0  0  0  0  0  0  0  0  0  0
    2.4140    2.4072    0.4436 N   0  0  0  0  0  0  0  0  0  0  0  0
    1.3899    2.4771    0.4674 H   0  0  0  0  0  0  0  0  0  0  0  0
    2.9139    1.1570    0.2094 C   0  0  0  0  0  0  0  0  0  0  0  0
    2.2019    0.1675    0.0359 O   0  0  0  0  0  0  0  0  0  0  0  0
  1  5  1  0  0  0  0
  1  2  2  0  0  0  0
  3  4  1  0  0  0  0
  3  1  1  0  0  0  0
  5  6  1  0  0  0  0
  5  8  1  0  0  0  0
  7  5  1  0  0  0  0
  9 19  1  0  0  0  0
  9 11  1  0  0  0  0
 10  9  1  0  0  0  0
 11 13  1  0  0  0  0
 12 11  2  0  0  0  0
 13 15  2  0  0  0  0
 13 14  1  0  0  0  0
 15 16  1  0  0  0  0
 17 18  1  0  0  0  0
 17 15  1  0  0  0  0
 19 17  1  0  0  0  0
 20 19  2  0  0  0  0
M  END
>  <SMILES>
C(=O)(O)C.[nH]1c(=O)cc[nH]c1=O

>  <MoleculeName>
AcOHUracil105

>  <Distance Scale>
1.05

>  <Energy Value>
-19.15

$$$$
/home/S66X8/2859_21AcNH2AcNH2090.xyz
 OpenBabel06262409173D

 18 16  0  0  0  0  0  0  0  0999 V2000
   -1.3097    1.1802   -0.0252 C   0  0  0  0  0  0  0  0  0  0  0  0
   -0.7253    2.1551    0.4527 O   0  0  0  0  0  0  0  0  0  0  0  0
   -0.6656    0.0951   -0.4920 N   0  0  0  0  0  0  0  0  0  0  0  0
    0.3546    0.0514   -0.4593 H   0  0  0  0  0  0  0  0  0  0  0  0
   -1.1836   -0.6736   -0.8708 H   0  0  0  0  0  0  0  0  0  0  0  0
   -2.8167    1.1560   -0.1106 C   0  0  0  0  0  0  0  0  0  0  0  0
   -3.2206    1.2625    0.8931 H   0  0  0  0  0  0  0  0  0  0  0  0
   -3.2094    0.2486   -0.5619 H   0  0  0  0  0  0  0  0  0  0  0  0
   -3.1432    2.0166   -0.6889 H   0  0  0  0  0  0  0  0  0  0  0  0
    2.6085    1.0603    0.1237 C   0  0  0  0  0  0  0  0  0  0  0  0
    2.0241    0.0863   -0.3560 O   0  0  0  0  0  0  0  0  0  0  0  0
    1.9644    2.1451    0.5916 N   0  0  0  0  0  0  0  0  0  0  0  0
    0.9443    2.1895    0.5573 H   0  0  0  0  0  0  0  0  0  0  0  0
    2.4824    2.9130    0.9717 H   0  0  0  0  0  0  0  0  0  0  0  0
    4.1155    1.0846    0.2089 C   0  0  0  0  0  0  0  0  0  0  0  0
    4.5074    1.9843    0.6761 H   0  0  0  0  0  0  0  0  0  0  0  0
    4.5191    0.9971   -0.7968 H   0  0  0  0  0  0  0  0  0  0  0  0
    4.4433    0.2140    0.7711 H   0  0  0  0  0  0  0  0  0  0  0  0
  1  2  2  0  0  0  0
  3  4  1  0  0  0  0
  3  1  1  0  0  0  0
  5  3  1  0  0  0  0
  6  1  1  0  0  0  0
  6  7  1  0  0  0  0
  8  6  1  0  0  0  0
  9  6  1  0  0  0  0
 10 15  1  0  0  0  0
 10 12  1  0  0  0  0
 11 10  2  0  0  0  0
 12 14  1  0  0  0  0
 13 12  1  0  0  0  0
 15 16  1  0  0  0  0
 15 18  1  0  0  0  0
 17 15  1  0  0  0  0
M  END
>  <SMILES>
C(=O)(N)C.C(=O)(N)C

>  <MoleculeName>
AcNH2AcNH2090

>  <Distance Scale>
0.9

>  <Energy Value>
-14.93

$$$$
/home/S66X8/2723_04WaterPeptide090.xyz
 OpenBabel06262409173D

 15 13  0  0  0  0  0  0  0  0999 V2000
   -0.3920   -0.3847    0.0761 O   0  0  0  0  0  0  0  0  0  0  0  0
   -0.9115    0.4138    0.1776 H   0  0  0  0  0  0  0  0  0  0  0  0
    0.5249   -0.0685    0.0905 H   0  0  0  0  0  0  0  0  0  0  0  0
    2.0515   -2.2609   -0.2278 C   0  0  0  0  0  0  0  0  0  0  0  0
    2.7015   -3.1220   -0.3607 H   0  0  0  0  0  0  0  0  0  0  0  0
    1.3705   -2.1834   -1.0717 H   0  0  0  0  0  0  0  0  0  0  0  0
    1.4385   -2.3997    0.6592 H   0  0  0  0  0  0  0  0  0  0  0  0
    2.8062   -0.9629   -0.0952 C   0  0  0  0  0  0  0  0  0  0  0  0
    2.2295    0.1124    0.0614 O   0  0  0  0  0  0  0  0  0  0  0  0
    4.1569   -1.0604   -0.1598 N   0  0  0  0  0  0  0  0  0  0  0  0
    4.5578   -1.9709   -0.2894 H   0  0  0  0  0  0  0  0  0  0  0  0
    5.0251    0.0916   -0.0504 C   0  0  0  0  0  0  0  0  0  0  0  0
    4.3886    0.9599    0.0844 H   0  0  0  0  0  0  0  0  0  0  0  0
    5.6907    0.0001    0.8057 H   0  0  0  0  0  0  0  0  0  0  0  0
    5.6196    0.2210   -0.9527 H   0  0  0  0  0  0  0  0  0  0  0  0
  1  3  1  0  0  0  0
  1  2  1  0  0  0  0
  4  8  1  0  0  0  0
  4  7  1  0  0  0  0
  5  4  1  0  0  0  0
  6  4  1  0  0  0  0
  8  9  2  0  0  0  0
 10  8  1  0  0  0  0
 10 12  1  0  0  0  0
 11 10  1  0  0  0  0
 12 13  1  0  0  0  0
 12 14  1  0  0  0  0
 15 12  1  0  0  0  0
M  END
>  <SMILES>
O.CC(=O)NC

>  <MoleculeName>
WaterPeptide090

>  <Distance Scale>
0.9

>  <Energy Value>
-7.63

$$$$
/home/S66X8/3046_44EthenePentane105.xyz
 OpenBabel06262409173D

 23 21  0  0  0  0  0  0  0  0999 V2000
    0.6664    0.1838    0.4197 C   0  0  0  0  0  0  0  0  0  0  0  0
    1.2289   -0.3299    1.1863 H   0  0  0  0  0  0  0  0  0  0  0  0
    1.2280    0.6972   -0.3476 H   0  0  0  0  0  0  0  0  0  0  0  0
   -0.6660    0.1830    0.4196 C   0  0  0  0  0  0  0  0  0  0  0  0
   -1.2279   -0.3315    1.1861 H   0  0  0  0  0  0  0  0  0  0  0  0
   -1.2282    0.6956   -0.3477 H   0  0  0  0  0  0  0  0  0  0  0  0
   -2.5328   -0.4076    4.3605 C   0  0  0  0  0  0  0  0  0  0  0  0
   -2.5623   -1.0207    3.4593 H   0  0  0  0  0  0  0  0  0  0  0  0
   -2.5689   -1.0819    5.2161 H   0  0  0  0  0  0  0  0  0  0  0  0
   -3.4339    0.2034    4.3777 H   0  0  0  0  0  0  0  0  0  0  0  0
   -1.2713    0.4450    4.3963 C   0  0  0  0  0  0  0  0  0  0  0  0
   -1.2717    1.0651    5.2957 H   0  0  0  0  0  0  0  0  0  0  0  0
   -1.2630    1.1319    3.5472 H   0  0  0  0  0  0  0  0  0  0  0  0
   -0.0001   -0.3925    4.3693 C   0  0  0  0  0  0  0  0  0  0  0  0
   -0.0002   -1.0792    5.2212 H   0  0  0  0  0  0  0  0  0  0  0  0
    0.0001   -1.0201    3.4727 H   0  0  0  0  0  0  0  0  0  0  0  0
    1.2712    0.4451    4.3967 C   0  0  0  0  0  0  0  0  0  0  0  0
    1.2714    1.0649    5.2962 H   0  0  0  0  0  0  0  0  0  0  0  0
    1.2630    1.1321    3.5478 H   0  0  0  0  0  0  0  0  0  0  0  0
    2.5326   -0.4077    4.3609 C   0  0  0  0  0  0  0  0  0  0  0  0
    2.5622   -1.0205    3.4596 H   0  0  0  0  0  0  0  0  0  0  0  0
    3.4338    0.2033    4.3785 H   0  0  0  0  0  0  0  0  0  0  0  0
    2.5685   -1.0821    5.2164 H   0  0  0  0  0  0  0  0  0  0  0  0
  1  2  1  0  0  0  0
  3  1  1  0  0  0  0
  4  1  2  0  0  0  0
  4  5  1  0  0  0  0
  6  4  1  0  0  0  0
  7 10  1  0  0  0  0
  7 11  1  0  0  0  0
  7  9  1  0  0  0  0
  8  7  1  0  0  0  0
 11 12  1  0  0  0  0
 13 11  1  0  0  0  0
 14 11  1  0  0  0  0
 14 17  1  0  0  0  0
 14 15  1  0  0  0  0
 16 14  1  0  0  0  0
 17 18  1  0  0  0  0
 19 17  1  0  0  0  0
 20 22  1  0  0  0  0
 20 17  1  0  0  0  0
 20 23  1  0  0  0  0
 21 20  1  0  0  0  0
M  END
>  <SMILES>
C=C.CCCCC

>  <MoleculeName>
EthenePentane105

>  <Distance Scale>
1.05

>  <Energy Value>
-1.86

$$$$
/home/S66X8/2699_01WaterWater090.xyz
 OpenBabel06262409173D

  6  4  0  0  0  0  0  0  0  0999 V2000
   -0.7022   -0.0561    0.0099 O   0  0  0  0  0  0  0  0  0  0  0  0
   -1.0222    0.8468   -0.0115 H   0  0  0  0  0  0  0  0  0  0  0  0
    0.2575    0.0421    0.0052 H   0  0  0  0  0  0  0  0  0  0  0  0
    2.0678    0.0279    0.0010 O   0  0  0  0  0  0  0  0  0  0  0  0
    2.4444   -0.4105    0.7671 H   0  0  0  0  0  0  0  0  0  0  0  0
    2.4400   -0.4483   -0.7444 H   0  0  0  0  0  0  0  0  0  0  0  0
  2  1  1  0  0  0  0
  3  1  1  0  0  0  0
  4  5  1  0  0  0  0
  6  4  1  0  0  0  0
M  END
>  <SMILES>
O.O

>  <MoleculeName>
WaterWater090

>  <Distance Scale>
0.9

>  <Energy Value>
-4.57

$$$$
/home/S66X8/2980_36NeopentaneNeopentane095.xyz
 OpenBabel06262409173D

 34 32  0  0  0  0  0  0  0  0999 V2000
    0.3825   -0.0706    0.7669 C   0  0  0  0  0  0  0  0  0  0  0  0
   -1.0406    0.3968    1.0609 C   0  0  0  0  0  0  0  0  0  0  0  0
   -1.7716   -0.2815    0.6183 H   0  0  0  0  0  0  0  0  0  0  0  0
   -1.2247    0.4357    2.1355 H   0  0  0  0  0  0  0  0  0  0  0  0
   -1.2141    1.3937    0.6531 H   0  0  0  0  0  0  0  0  0  0  0  0
    0.5908   -1.4668    1.3480 C   0  0  0  0  0  0  0  0  0  0  0  0
    1.6029   -1.8229    1.1501 H   0  0  0  0  0  0  0  0  0  0  0  0
    0.4390   -1.4667    2.4283 H   0  0  0  0  0  0  0  0  0  0  0  0
   -0.1099   -2.1787    0.9093 H   0  0  0  0  0  0  0  0  0  0  0  0
    1.3783    0.8984    1.3991 C   0  0  0  0  0  0  0  0  0  0  0  0
    2.4044    0.5854    1.2007 H   0  0  0  0  0  0  0  0  0  0  0  0
    1.2438    0.9460    2.4807 H   0  0  0  0  0  0  0  0  0  0  0  0
    1.2484    1.9050    0.9990 H   0  0  0  0  0  0  0  0  0  0  0  0
    0.6020   -0.1110   -0.7431 C   0  0  0  0  0  0  0  0  0  0  0  0
    0.4592    0.8770   -1.1829 H   0  0  0  0  0  0  0  0  0  0  0  0
    1.6137   -0.4435   -0.9797 H   0  0  0  0  0  0  0  0  0  0  0  0
   -0.0995   -0.7975   -1.2192 H   0  0  0  0  0  0  0  0  0  0  0  0
   -0.3590    0.0664    5.8567 C   0  0  0  0  0  0  0  0  0  0  0  0
    1.0638   -0.4026    5.5633 C   0  0  0  0  0  0  0  0  0  0  0  0
    1.2482   -0.4419    4.4888 H   0  0  0  0  0  0  0  0  0  0  0  0
    1.7952    0.2751    6.0061 H   0  0  0  0  0  0  0  0  0  0  0  0
    1.2360   -1.3996    5.9715 H   0  0  0  0  0  0  0  0  0  0  0  0
   -0.5654    1.4629    5.2759 C   0  0  0  0  0  0  0  0  0  0  0  0
   -1.5774    1.8199    5.4728 H   0  0  0  0  0  0  0  0  0  0  0  0
    0.1355    2.1740    5.7156 H   0  0  0  0  0  0  0  0  0  0  0  0
   -0.4123    1.4631    4.1958 H   0  0  0  0  0  0  0  0  0  0  0  0
   -0.5793    0.1065    7.3666 C   0  0  0  0  0  0  0  0  0  0  0  0
   -1.5905    0.4408    7.6027 H   0  0  0  0  0  0  0  0  0  0  0  0
    0.1232    0.7915    7.8434 H   0  0  0  0  0  0  0  0  0  0  0  0
   -0.4388   -0.8820    7.8060 H   0  0  0  0  0  0  0  0  0  0  0  0
   -1.3555   -0.9014    5.2236 C   0  0  0  0  0  0  0  0  0  0  0  0
   -1.2266   -1.9084    5.6232 H   0  0  0  0  0  0  0  0  0  0  0  0
   -2.3814   -0.5876    5.4220 H   0  0  0  0  0  0  0  0  0  0  0  0
   -1.2208   -0.9484    4.1420 H   0  0  0  0  0  0  0  0  0  0  0  0
  1  2  1  0  0  0  0
  1  6  1  0  0  0  0
  1 10  1  0  0  0  0
  2  4  1  0  0  0  0
  3  2  1  0  0  0  0
  5  2  1  0  0  0  0
  6  8  1  0  0  0  0
  7  6  1  0  0  0  0
  9  6  1  0  0  0  0
 10 12  1  0  0  0  0
 11 10  1  0  0  0  0
 13 10  1  0  0  0  0
 14  1  1  0  0  0  0
 15 14  1  0  0  0  0
 16 14  1  0  0  0  0
 17 14  1  0  0  0  0
 18 27  1  0  0  0  0
 19 18  1  0  0  0  0
 19 22  1  0  0  0  0
 19 21  1  0  0  0  0
 20 19  1  0  0  0  0
 23 24  1  0  0  0  0
 23 25  1  0  0  0  0
 23 18  1  0  0  0  0
 26 23  1  0  0  0  0
 27 28  1  0  0  0  0
 27 30  1  0  0  0  0
 27 29  1  0  0  0  0
 31 33  1  0  0  0  0
 31 32  1  0  0  0  0
 31 18  1  0  0  0  0
 34 31  1  0  0  0  0
M  END
>  <SMILES>
C(C)(C)(C)C.C(C)(C)(C)C

>  <MoleculeName>
NeopentaneNeopentane095

>  <Distance Scale>
0.95

>  <Energy Value>
-1.74

$$$$
/home/S66X8/2986_36NeopentaneNeopentane200.xyz
 OpenBabel06262409173D

 34 32  0  0  0  0  0  0  0  0999 V2000
    0.3825   -0.0706    0.7669 C   0  0  0  0  0  0  0  0  0  0  0  0
   -1.0406    0.3968    1.0609 C   0  0  0  0  0  0  0  0  0  0  0  0
   -1.7716   -0.2815    0.6183 H   0  0  0  0  0  0  0  0  0  0  0  0
   -1.2247    0.4357    2.1355 H   0  0  0  0  0  0  0  0  0  0  0  0
   -1.2141    1.3937    0.6531 H   0  0  0  0  0  0  0  0  0  0  0  0
    0.5908   -1.4668    1.3480 C   0  0  0  0  0  0  0  0  0  0  0  0
    1.6029   -1.8229    1.1501 H   0  0  0  0  0  0  0  0  0  0  0  0
    0.4390   -1.4667    2.4283 H   0  0  0  0  0  0  0  0  0  0  0  0
   -0.1099   -2.1787    0.9093 H   0  0  0  0  0  0  0  0  0  0  0  0
    1.3783    0.8984    1.3991 C   0  0  0  0  0  0  0  0  0  0  0  0
    2.4044    0.5854    1.2007 H   0  0  0  0  0  0  0  0  0  0  0  0
    1.2438    0.9460    2.4807 H   0  0  0  0  0  0  0  0  0  0  0  0
    1.2484    1.9050    0.9990 H   0  0  0  0  0  0  0  0  0  0  0  0
    0.6020   -0.1110   -0.7431 C   0  0  0  0  0  0  0  0  0  0  0  0
    0.4592    0.8770   -1.1829 H   0  0  0  0  0  0  0  0  0  0  0  0
    1.6137   -0.4435   -0.9797 H   0  0  0  0  0  0  0  0  0  0  0  0
   -0.0995   -0.7975   -1.2192 H   0  0  0  0  0  0  0  0  0  0  0  0
   -0.7871    0.1454    8.7951 C   0  0  0  0  0  0  0  0  0  0  0  0
    0.6357   -0.3235    8.5017 C   0  0  0  0  0  0  0  0  0  0  0  0
    0.8201   -0.3629    7.4271 H   0  0  0  0  0  0  0  0  0  0  0  0
    1.3671    0.3541    8.9444 H   0  0  0  0  0  0  0  0  0  0  0  0
    0.8079   -1.3205    8.9098 H   0  0  0  0  0  0  0  0  0  0  0  0
   -0.9935    1.5420    8.2142 C   0  0  0  0  0  0  0  0  0  0  0  0
   -2.0055    1.8990    8.4111 H   0  0  0  0  0  0  0  0  0  0  0  0
   -0.2926    2.2531    8.6540 H   0  0  0  0  0  0  0  0  0  0  0  0
   -0.8404    1.5422    7.1341 H   0  0  0  0  0  0  0  0  0  0  0  0
   -1.0074    0.1856   10.3049 C   0  0  0  0  0  0  0  0  0  0  0  0
   -2.0186    0.5199   10.5410 H   0  0  0  0  0  0  0  0  0  0  0  0
   -0.3049    0.8706   10.7818 H   0  0  0  0  0  0  0  0  0  0  0  0
   -0.8669   -0.8029   10.7444 H   0  0  0  0  0  0  0  0  0  0  0  0
   -1.7836   -0.8223    8.1619 C   0  0  0  0  0  0  0  0  0  0  0  0
   -1.6547   -1.8293    8.5615 H   0  0  0  0  0  0  0  0  0  0  0  0
   -2.8095   -0.5086    8.3603 H   0  0  0  0  0  0  0  0  0  0  0  0
   -1.6489   -0.8693    7.0803 H   0  0  0  0  0  0  0  0  0  0  0  0
  1  2  1  0  0  0  0
  1  6  1  0  0  0  0
  1 10  1  0  0  0  0
  2  4  1  0  0  0  0
  3  2  1  0  0  0  0
  5  2  1  0  0  0  0
  6  8  1  0  0  0  0
  7  6  1  0  0  0  0
  9  6  1  0  0  0  0
 10 12  1  0  0  0  0
 11 10  1  0  0  0  0
 13 10  1  0  0  0  0
 14  1  1  0  0  0  0
 15 14  1  0  0  0  0
 16 14  1  0  0  0  0
 17 14  1  0  0  0  0
 18 27  1  0  0  0  0
 19 18  1  0  0  0  0
 19 22  1  0  0  0  0
 19 21  1  0  0  0  0
 20 19  1  0  0  0  0
 23 24  1  0  0  0  0
 23 25  1  0  0  0  0
 23 18  1  0  0  0  0
 26 23  1  0  0  0  0
 27 28  1  0  0  0  0
 27 30  1  0  0  0  0
 27 29  1  0  0  0  0
 31 33  1  0  0  0  0
 31 32  1  0  0  0  0
 31 18  1  0  0  0  0
 34 31  1  0  0  0  0
M  END
>  <SMILES>
C(C)(C)(C)C.C(C)(C)(C)C

>  <MoleculeName>
NeopentaneNeopentane200

>  <Distance Scale>
2.0

>  <Energy Value>
-0.14

$$$$
/home/S66X8/2784_11MeNH2Peptide125.xyz
 OpenBabel06262409173D

 19 17  0  0  0  0  0  0  0  0999 V2000
   -0.5697    0.8144    0.1011 N   0  0  0  0  0  0  0  0  0  0  0  0
    0.1309    0.5614   -0.5876 H   0  0  0  0  0  0  0  0  0  0  0  0
   -1.4613    0.5269   -0.2804 H   0  0  0  0  0  0  0  0  0  0  0  0
   -0.3055    0.0657    1.3288 C   0  0  0  0  0  0  0  0  0  0  0  0
   -1.0571    0.3143    2.0760 H   0  0  0  0  0  0  0  0  0  0  0  0
   -0.2880   -1.0223    1.2148 H   0  0  0  0  0  0  0  0  0  0  0  0
    0.6605    0.3685    1.7302 H   0  0  0  0  0  0  0  0  0  0  0  0
    3.0288    2.6352   -0.2551 C   0  0  0  0  0  0  0  0  0  0  0  0
    3.1534    3.0464   -1.2542 H   0  0  0  0  0  0  0  0  0  0  0  0
    3.5354    3.2762    0.4626 H   0  0  0  0  0  0  0  0  0  0  0  0
    1.9624    2.6087   -0.0367 H   0  0  0  0  0  0  0  0  0  0  0  0
    3.5408    1.2174   -0.2529 C   0  0  0  0  0  0  0  0  0  0  0  0
    3.0808    0.3517   -0.9920 O   0  0  0  0  0  0  0  0  0  0  0  0
    4.5273    0.9444    0.6395 N   0  0  0  0  0  0  0  0  0  0  0  0
    4.9270    1.6993    1.1648 H   0  0  0  0  0  0  0  0  0  0  0  0
    5.1157   -0.3752    0.7170 C   0  0  0  0  0  0  0  0  0  0  0  0
    4.3275   -1.1165    0.6240 H   0  0  0  0  0  0  0  0  0  0  0  0
    5.8370   -0.5472   -0.0816 H   0  0  0  0  0  0  0  0  0  0  0  0
    5.6104   -0.4911    1.6769 H   0  0  0  0  0  0  0  0  0  0  0  0
  1  4  1  0  0  0  0
  2  1  1  0  0  0  0
  3  1  1  0  0  0  0
  4  7  1  0  0  0  0
  4  5  1  0  0  0  0
  6  4  1  0  0  0  0
  8 12  1  0  0  0  0
  8 11  1  0  0  0  0
  8 10  1  0  0  0  0
  9  8  1  0  0  0  0
 12 14  1  0  0  0  0
 13 12  2  0  0  0  0
 14 16  1  0  0  0  0
 14 15  1  0  0  0  0
 16 19  1  0  0  0  0
 17 16  1  0  0  0  0
 18 16  1  0  0  0  0
M  END
>  <SMILES>
NC.CC(=O)NC

>  <MoleculeName>
MeNH2Peptide125

>  <Distance Scale>
1.25

>  <Energy Value>
-3.21

$$$$
/home/S66X8/3060_46PeptidePentane095.xyz
 OpenBabel06262409173D

 29 27  0  0  0  0  0  0  0  0999 V2000
    1.3722    1.0125    0.9708 C   0  0  0  0  0  0  0  0  0  0  0  0
    0.9522    2.0140    1.0331 H   0  0  0  0  0  0  0  0  0  0  0  0
    1.9474    0.9265    0.0507 H   0  0  0  0  0  0  0  0  0  0  0  0
    2.0517    0.8518    1.8030 H   0  0  0  0  0  0  0  0  0  0  0  0
    0.3267   -0.0776    0.9882 C   0  0  0  0  0  0  0  0  0  0  0  0
    0.6188   -1.2525    1.1713 O   0  0  0  0  0  0  0  0  0  0  0  0
   -0.9500    0.3449    0.7739 N   0  0  0  0  0  0  0  0  0  0  0  0
   -1.1047    1.3220    0.6061 H   0  0  0  0  0  0  0  0  0  0  0  0
   -2.0599   -0.5774    0.6802 C   0  0  0  0  0  0  0  0  0  0  0  0
   -1.6694   -1.5668    0.8972 H   0  0  0  0  0  0  0  0  0  0  0  0
   -2.8346   -0.3314    1.4037 H   0  0  0  0  0  0  0  0  0  0  0  0
   -2.4910   -0.5789   -0.3199 H   0  0  0  0  0  0  0  0  0  0  0  0
    2.6542    0.4582    4.7771 C   0  0  0  0  0  0  0  0  0  0  0  0
    2.7710    1.2126    3.9983 H   0  0  0  0  0  0  0  0  0  0  0  0
    2.5680    0.9831    5.7287 H   0  0  0  0  0  0  0  0  0  0  0  0
    3.5662   -0.1361    4.8039 H   0  0  0  0  0  0  0  0  0  0  0  0
    1.4259   -0.4052    4.5195 C   0  0  0  0  0  0  0  0  0  0  0  0
    1.3313   -1.1507    5.3126 H   0  0  0  0  0  0  0  0  0  0  0  0
    1.5423   -0.9587    3.5857 H   0  0  0  0  0  0  0  0  0  0  0  0
    0.1433    0.4134    4.4542 C   0  0  0  0  0  0  0  0  0  0  0  0
    0.0318    0.9912    5.3773 H   0  0  0  0  0  0  0  0  0  0  0  0
    0.2226    1.1462    3.6446 H   0  0  0  0  0  0  0  0  0  0  0  0
   -1.1010   -0.4369    4.2374 C   0  0  0  0  0  0  0  0  0  0  0  0
   -1.1918   -1.1514    5.0588 H   0  0  0  0  0  0  0  0  0  0  0  0
   -0.9732   -1.0259    3.3271 H   0  0  0  0  0  0  0  0  0  0  0  0
   -2.3678    0.4034    4.1472 C   0  0  0  0  0  0  0  0  0  0  0  0
   -2.3009    1.1104    3.3195 H   0  0  0  0  0  0  0  0  0  0  0  0
   -3.2532   -0.2126    3.9934 H   0  0  0  0  0  0  0  0  0  0  0  0
   -2.5182    0.9796    5.0605 H   0  0  0  0  0  0  0  0  0  0  0  0
  1  5  1  0  0  0  0
  1  2  1  0  0  0  0
  1  4  1  0  0  0  0
  3  1  1  0  0  0  0
  5  6  2  0  0  0  0
  7  5  1  0  0  0  0
  8  7  1  0  0  0  0
  9  7  1  0  0  0  0
  9 10  1  0  0  0  0
  9 11  1  0  0  0  0
 12  9  1  0  0  0  0
 13 16  1  0  0  0  0
 13 15  1  0  0  0  0
 14 13  1  0  0  0  0
 17 13  1  0  0  0  0
 17 18  1  0  0  0  0
 19 17  1  0  0  0  0
 20 17  1  0  0  0  0
 20 21  1  0  0  0  0
 22 20  1  0  0  0  0
 23 20  1  0  0  0  0
 23 24  1  0  0  0  0
 25 23  1  0  0  0  0
 26 23  1  0  0  0  0
 26 29  1  0  0  0  0
 27 26  1  0  0  0  0
 28 26  1  0  0  0  0
M  END
>  <SMILES>
CC(=O)NC.CCCCC

>  <MoleculeName>
PeptidePentane095

>  <Distance Scale>
0.95

>  <Energy Value>
-4.21

$$$$
/home/S66X8/3164_59EthyneWaterCHO095.xyz
 OpenBabel06262409173D

  7  5  0  0  0  0  0  0  0  0999 V2000
   -1.0069   -0.0306   -0.0248 C   0  0  0  0  0  0  0  0  0  0  0  0
    0.0590   -0.0609   -0.0494 H   0  0  0  0  0  0  0  0  0  0  0  0
   -2.2187    0.0032    0.0026 C   0  0  0  0  0  0  0  0  0  0  0  0
   -3.2793    0.0335    0.0272 H   0  0  0  0  0  0  0  0  0  0  0  0
    2.1772   -0.1422   -0.1129 O   0  0  0  0  0  0  0  0  0  0  0  0
    2.7476   -0.7320    0.3842 H   0  0  0  0  0  0  0  0  0  0  0  0
    2.7492    0.2087   -0.7982 H   0  0  0  0  0  0  0  0  0  0  0  0
  1  3  3  0  0  0  0
  2  1  1  0  0  0  0
  3  4  1  0  0  0  0
  5  6  1  0  0  0  0
  7  5  1  0  0  0  0
M  END
>  <SMILES>
C#C.O

>  <MoleculeName>
EthyneWaterCHO095

>  <Distance Scale>
0.95

>  <Energy Value>
-2.8

$$$$
/home/S66X8/2985_36NeopentaneNeopentane150.xyz
 OpenBabel06262409173D

 34 32  0  0  0  0  0  0  0  0999 V2000
    0.3825   -0.0706    0.7669 C   0  0  0  0  0  0  0  0  0  0  0  0
   -1.0406    0.3968    1.0609 C   0  0  0  0  0  0  0  0  0  0  0  0
   -1.7716   -0.2815    0.6183 H   0  0  0  0  0  0  0  0  0  0  0  0
   -1.2247    0.4357    2.1355 H   0  0  0  0  0  0  0  0  0  0  0  0
   -1.2141    1.3937    0.6531 H   0  0  0  0  0  0  0  0  0  0  0  0
    0.5908   -1.4668    1.3480 C   0  0  0  0  0  0  0  0  0  0  0  0
    1.6029   -1.8229    1.1501 H   0  0  0  0  0  0  0  0  0  0  0  0
    0.4390   -1.4667    2.4283 H   0  0  0  0  0  0  0  0  0  0  0  0
   -0.1099   -2.1787    0.9093 H   0  0  0  0  0  0  0  0  0  0  0  0
    1.3783    0.8984    1.3991 C   0  0  0  0  0  0  0  0  0  0  0  0
    2.4044    0.5854    1.2007 H   0  0  0  0  0  0  0  0  0  0  0  0
    1.2438    0.9460    2.4807 H   0  0  0  0  0  0  0  0  0  0  0  0
    1.2484    1.9050    0.9990 H   0  0  0  0  0  0  0  0  0  0  0  0
    0.6020   -0.1110   -0.7431 C   0  0  0  0  0  0  0  0  0  0  0  0
    0.4592    0.8770   -1.1829 H   0  0  0  0  0  0  0  0  0  0  0  0
    1.6137   -0.4435   -0.9797 H   0  0  0  0  0  0  0  0  0  0  0  0
   -0.0995   -0.7975   -1.2192 H   0  0  0  0  0  0  0  0  0  0  0  0
   -0.5912    0.1093    7.4505 C   0  0  0  0  0  0  0  0  0  0  0  0
    0.8316   -0.3597    7.1571 C   0  0  0  0  0  0  0  0  0  0  0  0
    1.0160   -0.3990    6.0826 H   0  0  0  0  0  0  0  0  0  0  0  0
    1.5630    0.3180    7.5999 H   0  0  0  0  0  0  0  0  0  0  0  0
    1.0038   -1.3567    7.5653 H   0  0  0  0  0  0  0  0  0  0  0  0
   -0.7976    1.5058    6.8697 C   0  0  0  0  0  0  0  0  0  0  0  0
   -1.8096    1.8628    7.0666 H   0  0  0  0  0  0  0  0  0  0  0  0
   -0.0967    2.2169    7.3094 H   0  0  0  0  0  0  0  0  0  0  0  0
   -0.6445    1.5060    5.7896 H   0  0  0  0  0  0  0  0  0  0  0  0
   -0.8115    0.1494    8.9604 C   0  0  0  0  0  0  0  0  0  0  0  0
   -1.8228    0.4837    9.1965 H   0  0  0  0  0  0  0  0  0  0  0  0
   -0.1090    0.8344    9.4372 H   0  0  0  0  0  0  0  0  0  0  0  0
   -0.6710   -0.8391    9.3999 H   0  0  0  0  0  0  0  0  0  0  0  0
   -1.5877   -0.8585    6.8174 C   0  0  0  0  0  0  0  0  0  0  0  0
   -1.4588   -1.8655    7.2170 H   0  0  0  0  0  0  0  0  0  0  0  0
   -2.6136   -0.5448    7.0158 H   0  0  0  0  0  0  0  0  0  0  0  0
   -1.4530   -0.9055    5.7358 H   0  0  0  0  0  0  0  0  0  0  0  0
  1  2  1  0  0  0  0
  1  6  1  0  0  0  0
  1 10  1  0  0  0  0
  2  4  1  0  0  0  0
  3  2  1  0  0  0  0
  5  2  1  0  0  0  0
  6  8  1  0  0  0  0
  7  6  1  0  0  0  0
  9  6  1  0  0  0  0
 10 12  1  0  0  0  0
 11 10  1  0  0  0  0
 13 10  1  0  0  0  0
 14  1  1  0  0  0  0
 15 14  1  0  0  0  0
 16 14  1  0  0  0  0
 17 14  1  0  0  0  0
 18 27  1  0  0  0  0
 19 18  1  0  0  0  0
 19 22  1  0  0  0  0
 19 21  1  0  0  0  0
 20 19  1  0  0  0  0
 23 24  1  0  0  0  0
 23 25  1  0  0  0  0
 23 18  1  0  0  0  0
 26 23  1  0  0  0  0
 27 28  1  0  0  0  0
 27 30  1  0  0  0  0
 27 29  1  0  0  0  0
 31 33  1  0  0  0  0
 31 32  1  0  0  0  0
 31 18  1  0  0  0  0
 34 31  1  0  0  0  0
M  END
>  <SMILES>
C(C)(C)(C)C.C(C)(C)(C)C

>  <MoleculeName>
NeopentaneNeopentane150

>  <Distance Scale>
1.5

>  <Energy Value>
-0.5

$$$$
/home/S66X8/2926_29PyridineUracilpipi105.xyz
 OpenBabel06262409173D

 23 23  0  0  0  0  0  0  0  0999 V2000
    1.2108    0.0287    0.3297 N   0  0  0  0  0  0  0  0  0  0  0  0
    0.6119   -1.1584    0.1535 C   0  0  0  0  0  0  0  0  0  0  0  0
    1.2515   -2.0295    0.2193 H   0  0  0  0  0  0  0  0  0  0  0  0
   -0.7513   -1.3086   -0.0888 C   0  0  0  0  0  0  0  0  0  0  0  0
   -1.1704   -2.2969   -0.2134 H   0  0  0  0  0  0  0  0  0  0  0  0
   -1.5479   -0.1699   -0.1565 C   0  0  0  0  0  0  0  0  0  0  0  0
   -2.6110   -0.2460   -0.3388 H   0  0  0  0  0  0  0  0  0  0  0  0
   -0.9436    1.0706    0.0198 C   0  0  0  0  0  0  0  0  0  0  0  0
   -1.5188    1.9845   -0.0116 H   0  0  0  0  0  0  0  0  0  0  0  0
    0.4277    1.1161    0.2573 C   0  0  0  0  0  0  0  0  0  0  0  0
    0.9247    2.0681    0.3975 H   0  0  0  0  0  0  0  0  0  0  0  0
   -0.6995   -0.2761    3.4513 N   0  0  0  0  0  0  0  0  0  0  0  0
   -1.5943   -0.7080    3.2666 H   0  0  0  0  0  0  0  0  0  0  0  0
   -0.6992    1.1217    3.5443 C   0  0  0  0  0  0  0  0  0  0  0  0
   -1.7391    1.7499    3.4294 O   0  0  0  0  0  0  0  0  0  0  0  0
    0.6203    1.6808    3.7718 C   0  0  0  0  0  0  0  0  0  0  0  0
    0.7216    2.7480    3.8677 H   0  0  0  0  0  0  0  0  0  0  0  0
    1.6902    0.8621    3.8433 C   0  0  0  0  0  0  0  0  0  0  0  0
    2.6940    1.2308    3.9918 H   0  0  0  0  0  0  0  0  0  0  0  0
    1.5721   -0.4952    3.7308 N   0  0  0  0  0  0  0  0  0  0  0  0
    2.3855   -1.0874    3.7226 H   0  0  0  0  0  0  0  0  0  0  0  0
    0.3717   -1.1424    3.5044 C   0  0  0  0  0  0  0  0  0  0  0  0
    0.2795   -2.3478    3.3708 O   0  0  0  0  0  0  0  0  0  0  0  0
  2  3  1  0  0  0  0
  2  1  2  0  0  0  0
  4  2  1  0  0  0  0
  5  4  1  0  0  0  0
  6  4  2  0  0  0  0
  6  8  1  0  0  0  0
  7  6  1  0  0  0  0
  8 10  2  0  0  0  0
  9  8  1  0  0  0  0
 10  1  1  0  0  0  0
 10 11  1  0  0  0  0
 12 22  1  0  0  0  0
 12 14  1  0  0  0  0
 13 12  1  0  0  0  0
 14 16  1  0  0  0  0
 15 14  2  0  0  0  0
 16 18  2  0  0  0  0
 16 17  1  0  0  0  0
 18 19  1  0  0  0  0
 20 18  1  0  0  0  0
 21 20  1  0  0  0  0
 22 20  1  0  0  0  0
 23 22  2  0  0  0  0
M  END
>  <SMILES>
n1ccccc1.[nH]1c(=O)cc[nH]c1=O

>  <MoleculeName>
PyridineUracilpipi105

>  <Distance Scale>
1.05

>  <Energy Value>
-6.58

$$$$
/home/S66X8/3218_65PyridineEthyne200.xyz
 OpenBabel06262409173D

 15 14  0  0  0  0  0  0  0  0999 V2000
   -0.0830    0.0007    1.0552 N   0  0  0  0  0  0  0  0  0  0  0  0
   -0.2029   -1.1417    0.3649 C   0  0  0  0  0  0  0  0  0  0  0  0
   -0.0985   -2.0551    0.9374 H   0  0  0  0  0  0  0  0  0  0  0  0
   -0.4468   -1.1918   -1.0045 C   0  0  0  0  0  0  0  0  0  0  0  0
   -0.5336   -2.1459   -1.5042 H   0  0  0  0  0  0  0  0  0  0  0  0
   -0.5747    0.0034   -1.7043 C   0  0  0  0  0  0  0  0  0  0  0  0
   -0.7637    0.0045   -2.7687 H   0  0  0  0  0  0  0  0  0  0  0  0
   -0.4535    1.1972   -1.0009 C   0  0  0  0  0  0  0  0  0  0  0  0
   -0.5456    2.1523   -1.4978 H   0  0  0  0  0  0  0  0  0  0  0  0
   -0.2093    1.1445    0.3684 C   0  0  0  0  0  0  0  0  0  0  0  0
   -0.1102    2.0567    0.9436 H   0  0  0  0  0  0  0  0  0  0  0  0
    0.7810   -0.0132    7.7900 C   0  0  0  0  0  0  0  0  0  0  0  0
    0.8964   -0.0126    8.8450 H   0  0  0  0  0  0  0  0  0  0  0  0
    0.6489   -0.0138    6.5837 C   0  0  0  0  0  0  0  0  0  0  0  0
    0.5307   -0.0135    5.5192 H   0  0  0  0  0  0  0  0  0  0  0  0
  2  3  1  0  0  0  0
  2  1  2  0  0  0  0
  4  2  1  0  0  0  0
  5  4  1  0  0  0  0
  6  4  2  0  0  0  0
  6  8  1  0  0  0  0
  7  6  1  0  0  0  0
  8 10  2  0  0  0  0
  9  8  1  0  0  0  0
 10 11  1  0  0  0  0
 10  1  1  0  0  0  0
 12 13  1  0  0  0  0
 14 12  3  0  0  0  0
 15 14  1  0  0  0  0
M  END
>  <SMILES>
n1ccccc1.C#C

>  <MoleculeName>
PyridineEthyne200

>  <Distance Scale>
2.0

>  <Energy Value>
-0.62

$$$$
/home/S66X8/2881_23AcNH2Uracil150.xyz
 OpenBabel06262409173D

 21 20  0  0  0  0  0  0  0  0999 V2000
   -1.2327    1.2116   -0.1416 C   0  0  0  0  0  0  0  0  0  0  0  0
   -0.5713    2.2420    0.0256 O   0  0  0  0  0  0  0  0  0  0  0  0
   -0.6706    0.0039   -0.3143 N   0  0  0  0  0  0  0  0  0  0  0  0
    0.3438   -0.0906   -0.3083 H   0  0  0  0  0  0  0  0  0  0  0  0
   -1.2442   -0.8063   -0.4467 H   0  0  0  0  0  0  0  0  0  0  0  0
   -2.7382    1.2668   -0.1559 C   0  0  0  0  0  0  0  0  0  0  0  0
   -3.0780    1.6466    0.8045 H   0  0  0  0  0  0  0  0  0  0  0  0
   -3.2021    0.3029   -0.3462 H   0  0  0  0  0  0  0  0  0  0  0  0
   -3.0500    1.9755   -0.9186 H   0  0  0  0  0  0  0  0  0  0  0  0
    5.0687    1.1306   -0.1085 N   0  0  0  0  0  0  0  0  0  0  0  0
    5.5587    0.2546   -0.2265 H   0  0  0  0  0  0  0  0  0  0  0  0
    5.8723    2.2734    0.0419 C   0  0  0  0  0  0  0  0  0  0  0  0
    7.0879    2.1778    0.0268 O   0  0  0  0  0  0  0  0  0  0  0  0
    5.0997    3.4887    0.2051 C   0  0  0  0  0  0  0  0  0  0  0  0
    5.6215    4.4219    0.3281 H   0  0  0  0  0  0  0  0  0  0  0  0
    3.7506    3.4271    0.1994 C   0  0  0  0  0  0  0  0  0  0  0  0
    3.1302    4.3034    0.3171 H   0  0  0  0  0  0  0  0  0  0  0  0
    3.0655    2.2548    0.0448 N   0  0  0  0  0  0  0  0  0  0  0  0
    2.0327    2.2457    0.0440 H   0  0  0  0  0  0  0  0  0  0  0  0
    3.6964    1.0503   -0.1174 C   0  0  0  0  0  0  0  0  0  0  0  0
    3.0992   -0.0136   -0.2592 O   0  0  0  0  0  0  0  0  0  0  0  0
  1  2  2  0  0  0  0
  3  4  1  0  0  0  0
  3  1  1  0  0  0  0
  5  3  1  0  0  0  0
  6  1  1  0  0  0  0
  6  7  1  0  0  0  0
  8  6  1  0  0  0  0
  9  6  1  0  0  0  0
 10 12  1  0  0  0  0
 11 10  1  0  0  0  0
 12 14  1  0  0  0  0
 13 12  2  0  0  0  0
 14 15  1  0  0  0  0
 16 14  2  0  0  0  0
 16 17  1  0  0  0  0
 18 16  1  0  0  0  0
 19 18  1  0  0  0  0
 20 10  1  0  0  0  0
 20 18  1  0  0  0  0
 21 20  2  0  0  0  0
M  END
>  <SMILES>
C(=O)(N)C.[nH]1c(=O)cc[nH]c1=O

>  <MoleculeName>
AcNH2Uracil150

>  <Distance Scale>
1.5

>  <Energy Value>
-10.23

$$$$
/home/S66X8/3220_66MeNH2Pyridine095.xyz
 OpenBabel06262409173D

 18 17  0  0  0  0  0  0  0  0999 V2000
   -0.5411    0.0296   -0.2090 N   0  0  0  0  0  0  0  0  0  0  0  0
    0.0556   -0.7861   -0.1303 H   0  0  0  0  0  0  0  0  0  0  0  0
   -1.4697   -0.2747    0.0531 H   0  0  0  0  0  0  0  0  0  0  0  0
   -0.0788    1.0424    0.7385 C   0  0  0  0  0  0  0  0  0  0  0  0
   -0.7202    1.9194    0.6720 H   0  0  0  0  0  0  0  0  0  0  0  0
   -0.0508    0.7238    1.7855 H   0  0  0  0  0  0  0  0  0  0  0  0
    0.9264    1.3566    0.4620 H   0  0  0  0  0  0  0  0  0  0  0  0
    2.2436   -1.2366    0.0233 N   0  0  0  0  0  0  0  0  0  0  0  0
    2.5820   -0.4242   -0.9885 C   0  0  0  0  0  0  0  0  0  0  0  0
    2.0394   -0.5688   -1.9138 H   0  0  0  0  0  0  0  0  0  0  0  0
    3.5533    0.5679   -0.8881 C   0  0  0  0  0  0  0  0  0  0  0  0
    3.7782    1.1922   -1.7409 H   0  0  0  0  0  0  0  0  0  0  0  0
    4.2142    0.7374    0.3242 C   0  0  0  0  0  0  0  0  0  0  0  0
    4.9720    1.4997    0.4406 H   0  0  0  0  0  0  0  0  0  0  0  0
    3.8741   -0.0975    1.3833 C   0  0  0  0  0  0  0  0  0  0  0  0
    4.3566   -0.0071    2.3460 H   0  0  0  0  0  0  0  0  0  0  0  0
    2.8903   -1.0623    1.1841 C   0  0  0  0  0  0  0  0  0  0  0  0
    2.6042   -1.7260    1.9907 H   0  0  0  0  0  0  0  0  0  0  0  0
  1  2  1  0  0  0  0
  1  3  1  0  0  0  0
  1  4  1  0  0  0  0
  4  6  1  0  0  0  0
  5  4  1  0  0  0  0
  7  4  1  0  0  0  0
  8 17  1  0  0  0  0
  9 11  1  0  0  0  0
  9  8  2  0  0  0  0
 10  9  1  0  0  0  0
 11 13  2  0  0  0  0
 12 11  1  0  0  0  0
 13 14  1  0  0  0  0
 13 15  1  0  0  0  0
 15 16  1  0  0  0  0
 17 15  2  0  0  0  0
 17 18  1  0  0  0  0
M  END
>  <SMILES>
NC.n1ccccc1

>  <MoleculeName>
MeNH2Pyridine095

>  <Distance Scale>
0.95

>  <Energy Value>
-3.88

$$$$
/home/S66X8/2851_20AcOHAcOH090.xyz
 OpenBabel06262409173D

 16 14  0  0  0  0  0  0  0  0999 V2000
   -1.0617    1.2971    0.2921 C   0  0  0  0  0  0  0  0  0  0  0  0
   -0.3582    2.2705    0.5318 O   0  0  0  0  0  0  0  0  0  0  0  0
   -0.5893    0.0949    0.0038 O   0  0  0  0  0  0  0  0  0  0  0  0
    0.4044    0.1277    0.0184 H   0  0  0  0  0  0  0  0  0  0  0  0
   -2.5584    1.3425    0.2963 C   0  0  0  0  0  0  0  0  0  0  0  0
   -2.8960    2.3475    0.5183 H   0  0  0  0  0  0  0  0  0  0  0  0
   -2.9329    1.0224   -0.6730 H   0  0  0  0  0  0  0  0  0  0  0  0
   -2.9372    0.6449    1.0396 H   0  0  0  0  0  0  0  0  0  0  0  0
    2.6305    1.1077    0.2700 C   0  0  0  0  0  0  0  0  0  0  0  0
    1.9269    0.1344    0.0302 O   0  0  0  0  0  0  0  0  0  0  0  0
    2.1581    2.3102    0.5577 O   0  0  0  0  0  0  0  0  0  0  0  0
    1.1643    2.2773    0.5433 H   0  0  0  0  0  0  0  0  0  0  0  0
    4.1272    1.0618    0.2680 C   0  0  0  0  0  0  0  0  0  0  0  0
    4.4648    0.0605    0.0305 H   0  0  0  0  0  0  0  0  0  0  0  0
    4.5087    1.7722   -0.4615 H   0  0  0  0  0  0  0  0  0  0  0  0
    4.4987    1.3645    1.2441 H   0  0  0  0  0  0  0  0  0  0  0  0
  1  5  1  0  0  0  0
  1  2  2  0  0  0  0
  3  4  1  0  0  0  0
  3  1  1  0  0  0  0
  5  6  1  0  0  0  0
  5  8  1  0  0  0  0
  7  5  1  0  0  0  0
  9 11  1  0  0  0  0
 10  9  2  0  0  0  0
 12 11  1  0  0  0  0
 13  9  1  0  0  0  0
 13 16  1  0  0  0  0
 14 13  1  0  0  0  0
 15 13  1  0  0  0  0
M  END
>  <SMILES>
C(=O)(O)C.C(=O)(O)C

>  <MoleculeName>
AcOHAcOH090

>  <Distance Scale>
0.9

>  <Energy Value>
-17.45

$$$$
/home/S66X8/2862_21AcNH2AcNH2105.xyz
 OpenBabel06262409173D

 18 16  0  0  0  0  0  0  0  0999 V2000
   -1.3097    1.1802   -0.0252 C   0  0  0  0  0  0  0  0  0  0  0  0
   -0.7253    2.1551    0.4527 O   0  0  0  0  0  0  0  0  0  0  0  0
   -0.6656    0.0951   -0.4920 N   0  0  0  0  0  0  0  0  0  0  0  0
    0.3546    0.0514   -0.4593 H   0  0  0  0  0  0  0  0  0  0  0  0
   -1.1836   -0.6736   -0.8708 H   0  0  0  0  0  0  0  0  0  0  0  0
   -2.8167    1.1560   -0.1106 C   0  0  0  0  0  0  0  0  0  0  0  0
   -3.2206    1.2625    0.8931 H   0  0  0  0  0  0  0  0  0  0  0  0
   -3.2094    0.2486   -0.5619 H   0  0  0  0  0  0  0  0  0  0  0  0
   -3.1432    2.0166   -0.6889 H   0  0  0  0  0  0  0  0  0  0  0  0
    2.8867    1.0661    0.1410 C   0  0  0  0  0  0  0  0  0  0  0  0
    2.3023    0.0921   -0.3387 O   0  0  0  0  0  0  0  0  0  0  0  0
    2.2426    2.1509    0.6089 N   0  0  0  0  0  0  0  0  0  0  0  0
    1.2225    2.1953    0.5746 H   0  0  0  0  0  0  0  0  0  0  0  0
    2.7607    2.9188    0.9890 H   0  0  0  0  0  0  0  0  0  0  0  0
    4.3937    1.0904    0.2263 C   0  0  0  0  0  0  0  0  0  0  0  0
    4.7856    1.9900    0.6934 H   0  0  0  0  0  0  0  0  0  0  0  0
    4.7973    1.0028   -0.7795 H   0  0  0  0  0  0  0  0  0  0  0  0
    4.7215    0.2198    0.7884 H   0  0  0  0  0  0  0  0  0  0  0  0
  1  2  2  0  0  0  0
  3  4  1  0  0  0  0
  3  1  1  0  0  0  0
  5  3  1  0  0  0  0
  6  1  1  0  0  0  0
  6  7  1  0  0  0  0
  8  6  1  0  0  0  0
  9  6  1  0  0  0  0
 10 15  1  0  0  0  0
 10 12  1  0  0  0  0
 11 10  2  0  0  0  0
 12 14  1  0  0  0  0
 13 12  1  0  0  0  0
 15 16  1  0  0  0  0
 15 18  1  0  0  0  0
 17 15  1  0  0  0  0
M  END
>  <SMILES>
C(=O)(N)C.C(=O)(N)C

>  <MoleculeName>
AcNH2AcNH2105

>  <Distance Scale>
1.05

>  <Energy Value>
-15.94

$$$$
/home/S66X8/3055_45EthynePentane110.xyz
 OpenBabel06262409173D

 21 19  0  0  0  0  0  0  0  0999 V2000
   -0.6062    0.0559    0.5890 C   0  0  0  0  0  0  0  0  0  0  0  0
   -1.6680    0.0558    0.5890 H   0  0  0  0  0  0  0  0  0  0  0  0
    0.6058    0.0555    0.5893 C   0  0  0  0  0  0  0  0  0  0  0  0
    1.6677    0.0549    0.5897 H   0  0  0  0  0  0  0  0  0  0  0  0
   -2.5304   -0.3536    4.5446 C   0  0  0  0  0  0  0  0  0  0  0  0
   -2.5388   -1.0155    3.6781 H   0  0  0  0  0  0  0  0  0  0  0  0
   -2.5823   -0.9798    5.4351 H   0  0  0  0  0  0  0  0  0  0  0  0
   -3.4328    0.2553    4.5118 H   0  0  0  0  0  0  0  0  0  0  0  0
   -1.2699    0.5010    4.5556 C   0  0  0  0  0  0  0  0  0  0  0  0
   -1.2865    1.1740    5.4160 H   0  0  0  0  0  0  0  0  0  0  0  0
   -1.2446    1.1352    3.6668 H   0  0  0  0  0  0  0  0  0  0  0  0
    0.0001   -0.3373    4.5961 C   0  0  0  0  0  0  0  0  0  0  0  0
    0.0001   -0.9551    5.4991 H   0  0  0  0  0  0  0  0  0  0  0  0
    0.0001   -1.0256    3.7468 H   0  0  0  0  0  0  0  0  0  0  0  0
    1.2700    0.5011    4.5557 C   0  0  0  0  0  0  0  0  0  0  0  0
    1.2866    1.1740    5.4161 H   0  0  0  0  0  0  0  0  0  0  0  0
    1.2448    1.1352    3.6669 H   0  0  0  0  0  0  0  0  0  0  0  0
    2.5305   -0.3536    4.5448 C   0  0  0  0  0  0  0  0  0  0  0  0
    2.5389   -1.0155    3.6784 H   0  0  0  0  0  0  0  0  0  0  0  0
    3.4329    0.2554    4.5120 H   0  0  0  0  0  0  0  0  0  0  0  0
    2.5823   -0.9798    5.4354 H   0  0  0  0  0  0  0  0  0  0  0  0
  1  2  1  0  0  0  0
  1  3  3  0  0  0  0
  3  4  1  0  0  0  0
  5  9  1  0  0  0  0
  5  7  1  0  0  0  0
  6  5  1  0  0  0  0
  8  5  1  0  0  0  0
  9 12  1  0  0  0  0
  9 10  1  0  0  0  0
 11  9  1  0  0  0  0
 12 13  1  0  0  0  0
 14 12  1  0  0  0  0
 15 12  1  0  0  0  0
 15 16  1  0  0  0  0
 17 15  1  0  0  0  0
 18 15  1  0  0  0  0
 18 21  1  0  0  0  0
 19 18  1  0  0  0  0
 20 18  1  0  0  0  0
M  END
>  <SMILES>
C#C.CCCCC

>  <MoleculeName>
EthynePentane110

>  <Distance Scale>
1.1

>  <Energy Value>
-1.52

$$$$
/home/S66X8/3036_43UracilNeopentane095.xyz
 OpenBabel06262409173D

 29 28  0  0  0  0  0  0  0  0999 V2000
    0.6261   -0.8509    0.8059 N   0  0  0  0  0  0  0  0  0  0  0  0
    0.4092   -1.8115    1.0344 H   0  0  0  0  0  0  0  0  0  0  0  0
   -0.4325   -0.0873    0.2947 C   0  0  0  0  0  0  0  0  0  0  0  0
   -1.5308   -0.5884    0.1236 O   0  0  0  0  0  0  0  0  0  0  0  0
   -0.0669    1.2913    0.0196 C   0  0  0  0  0  0  0  0  0  0  0  0
   -0.8097    1.9518   -0.3928 H   0  0  0  0  0  0  0  0  0  0  0  0
    1.1835    1.7179    0.2905 C   0  0  0  0  0  0  0  0  0  0  0  0
    1.5019    2.7339    0.1098 H   0  0  0  0  0  0  0  0  0  0  0  0
    2.1341    0.8866    0.8191 N   0  0  0  0  0  0  0  0  0  0  0  0
    3.0553    1.2239    1.0434 H   0  0  0  0  0  0  0  0  0  0  0  0
    1.9028   -0.4432    1.1283 C   0  0  0  0  0  0  0  0  0  0  0  0
    2.7438   -1.1639    1.6286 O   0  0  0  0  0  0  0  0  0  0  0  0
   -0.5861   -0.0275    4.6265 C   0  0  0  0  0  0  0  0  0  0  0  0
   -1.9028    0.7138    4.8414 C   0  0  0  0  0  0  0  0  0  0  0  0
   -2.6099    0.0956    5.3963 H   0  0  0  0  0  0  0  0  0  0  0  0
   -1.7433    1.6340    5.4056 H   0  0  0  0  0  0  0  0  0  0  0  0
   -2.3605    0.9753    3.8862 H   0  0  0  0  0  0  0  0  0  0  0  0
    0.0294   -0.3809    5.9778 C   0  0  0  0  0  0  0  0  0  0  0  0
    0.9725   -0.9133    5.8470 H   0  0  0  0  0  0  0  0  0  0  0  0
    0.2264    0.5188    6.5626 H   0  0  0  0  0  0  0  0  0  0  0  0
   -0.6419   -1.0187    6.5545 H   0  0  0  0  0  0  0  0  0  0  0  0
    0.3791    0.8660    3.8507 C   0  0  0  0  0  0  0  0  0  0  0  0
    1.3276    0.3534    3.6804 H   0  0  0  0  0  0  0  0  0  0  0  0
    0.5843    1.7841    4.4042 H   0  0  0  0  0  0  0  0  0  0  0  0
   -0.0433    1.1445    2.8833 H   0  0  0  0  0  0  0  0  0  0  0  0
   -0.8474   -1.3075    3.8362 C   0  0  0  0  0  0  0  0  0  0  0  0
   -1.3111   -1.0857    2.8735 H   0  0  0  0  0  0  0  0  0  0  0  0
    0.0852   -1.8459    3.6565 H   0  0  0  0  0  0  0  0  0  0  0  0
   -1.5179   -1.9693    4.3863 H   0  0  0  0  0  0  0  0  0  0  0  0
  1  2  1  0  0  0  0
  1 11  1  0  0  0  0
  3  1  1  0  0  0  0
  4  3  2  0  0  0  0
  5  7  2  0  0  0  0
  5  3  1  0  0  0  0
  6  5  1  0  0  0  0
  7  9  1  0  0  0  0
  8  7  1  0  0  0  0
  9 10  1  0  0  0  0
  9 11  1  0  0  0  0
 11 12  2  0  0  0  0
 13 14  1  0  0  0  0
 13 18  1  0  0  0  0
 14 15  1  0  0  0  0
 14 16  1  0  0  0  0
 17 14  1  0  0  0  0
 18 21  1  0  0  0  0
 18 20  1  0  0  0  0
 19 18  1  0  0  0  0
 22 24  1  0  0  0  0
 22 13  1  0  0  0  0
 23 22  1  0  0  0  0
 25 22  1  0  0  0  0
 26 29  1  0  0  0  0
 26 13  1  0  0  0  0
 27 26  1  0  0  0  0
 28 26  1  0  0  0  0
M  END
>  <SMILES>
[nH]1c(=O)cc[nH]c1=O.C(C)(C)(C)C

>  <MoleculeName>
UracilNeopentane095

>  <Distance Scale>
0.95

>  <Energy Value>
-3.6

$$$$
/home/S66X8/2740_06MeOHMeNH2095.xyz
 OpenBabel06262409173D

 13 11  0  0  0  0  0  0  0  0999 V2000
   -0.7069    0.0458    0.0064 O   0  0  0  0  0  0  0  0  0  0  0  0
    0.2656    0.0717    0.0013 H   0  0  0  0  0  0  0  0  0  0  0  0
   -1.0767   -1.3139    0.0016 C   0  0  0  0  0  0  0  0  0  0  0  0
   -2.1629   -1.3632    0.0059 H   0  0  0  0  0  0  0  0  0  0  0  0
   -0.7234   -1.8447   -0.8877 H   0  0  0  0  0  0  0  0  0  0  0  0
   -0.7161   -1.8528    0.8831 H   0  0  0  0  0  0  0  0  0  0  0  0
    2.1337   -0.0326   -0.0032 N   0  0  0  0  0  0  0  0  0  0  0  0
    2.5043    0.4751    0.7900 H   0  0  0  0  0  0  0  0  0  0  0  0
    2.5044    0.4317   -0.8224 H   0  0  0  0  0  0  0  0  0  0  0  0
    2.6115   -1.4187    0.0343 C   0  0  0  0  0  0  0  0  0  0  0  0
    2.2196   -1.9527   -0.8279 H   0  0  0  0  0  0  0  0  0  0  0  0
    3.6982   -1.5254    0.0373 H   0  0  0  0  0  0  0  0  0  0  0  0
    2.2193   -1.9054    0.9239 H   0  0  0  0  0  0  0  0  0  0  0  0
  2  1  1  0  0  0  0
  3  4  1  0  0  0  0
  3  1  1  0  0  0  0
  3  6  1  0  0  0  0
  5  3  1  0  0  0  0
  7 10  1  0  0  0  0
  7  8  1  0  0  0  0
  9  7  1  0  0  0  0
 10 12  1  0  0  0  0
 10 13  1  0  0  0  0
 11 10  1  0  0  0  0
M  END
>  <SMILES>
OC.NC

>  <MoleculeName>
MeOHMeNH2095

>  <Distance Scale>
0.95

>  <Energy Value>
-7.47

$$$$
/home/S66X8/2814_15PeptidePeptide105.xyz
 OpenBabel06262409173D

 24 22  0  0  0  0  0  0  0  0999 V2000
   -0.7015   -0.2906    2.4069 C   0  0  0  0  0  0  0  0  0  0  0  0
   -1.1833    0.3956    3.0989 H   0  0  0  0  0  0  0  0  0  0  0  0
    0.3496   -0.0303    2.3078 H   0  0  0  0  0  0  0  0  0  0  0  0
   -0.7941   -1.2916    2.8240 H   0  0  0  0  0  0  0  0  0  0  0  0
   -1.4485   -0.2449    1.0918 C   0  0  0  0  0  0  0  0  0  0  0  0
   -2.6605   -0.4285    1.0343 O   0  0  0  0  0  0  0  0  0  0  0  0
   -0.6701    0.0059    0.0098 N   0  0  0  0  0  0  0  0  0  0  0  0
    0.3267    0.1226    0.1416 H   0  0  0  0  0  0  0  0  0  0  0  0
   -1.2271    0.0898   -1.3200 C   0  0  0  0  0  0  0  0  0  0  0  0
   -2.2920   -0.1065   -1.2409 H   0  0  0  0  0  0  0  0  0  0  0  0
   -1.0778    1.0799   -1.7485 H   0  0  0  0  0  0  0  0  0  0  0  0
   -0.7766   -0.6480   -1.9834 H   0  0  0  0  0  0  0  0  0  0  0  0
    2.1620   -2.3590    0.6958 C   0  0  0  0  0  0  0  0  0  0  0  0
    2.7202   -3.2690    0.4899 H   0  0  0  0  0  0  0  0  0  0  0  0
    1.2333   -2.3656    0.1315 H   0  0  0  0  0  0  0  0  0  0  0  0
    1.9028   -2.3356    1.7527 H   0  0  0  0  0  0  0  0  0  0  0  0
    2.9296   -1.1046    0.3596 C   0  0  0  0  0  0  0  0  0  0  0  0
    2.3845   -0.0032    0.3026 O   0  0  0  0  0  0  0  0  0  0  0  0
    4.2564   -1.2734    0.1458 N   0  0  0  0  0  0  0  0  0  0  0  0
    4.6327   -2.2007    0.2226 H   0  0  0  0  0  0  0  0  0  0  0  0
    5.1436   -0.1670   -0.1431 C   0  0  0  0  0  0  0  0  0  0  0  0
    4.5294    0.7238   -0.2230 H   0  0  0  0  0  0  0  0  0  0  0  0
    5.8711   -0.0275    0.6543 H   0  0  0  0  0  0  0  0  0  0  0  0
    5.6686   -0.3270   -1.0823 H   0  0  0  0  0  0  0  0  0  0  0  0
  1  4  1  0  0  0  0
  1  2  1  0  0  0  0
  3  1  1  0  0  0  0
  5  1  1  0  0  0  0
  6  5  2  0  0  0  0
  7  8  1  0  0  0  0
  7  5  1  0  0  0  0
  9 10  1  0  0  0  0
  9  7  1  0  0  0  0
 11  9  1  0  0  0  0
 12  9  1  0  0  0  0
 13 16  1  0  0  0  0
 14 13  1  0  0  0  0
 15 13  1  0  0  0  0
 17 13  1  0  0  0  0
 18 17  2  0  0  0  0
 19 20  1  0  0  0  0
 19 17  1  0  0  0  0
 21 19  1  0  0  0  0
 21 23  1  0  0  0  0
 22 21  1  0  0  0  0
 24 21  1  0  0  0  0
M  END
>  <SMILES>
CC(=O)NC.CC(=O)NC

>  <MoleculeName>
PeptidePeptide105

>  <Distance Scale>
1.05

>  <Energy Value>
-8.45

$$$$
/home/S66X8/2943_31UracilEthene110.xyz
 OpenBabel06262409173D

 18 17  0  0  0  0  0  0  0  0999 V2000
   -0.0509   -0.9801    0.0340 N   0  0  0  0  0  0  0  0  0  0  0  0
   -0.0532   -1.9907    0.0498 H   0  0  0  0  0  0  0  0  0  0  0  0
   -1.3088   -0.3619    0.0040 C   0  0  0  0  0  0  0  0  0  0  0  0
   -2.3272   -1.0326   -0.0058 O   0  0  0  0  0  0  0  0  0  0  0  0
   -1.2368    1.0880   -0.0122 C   0  0  0  0  0  0  0  0  0  0  0  0
   -2.1527    1.6515   -0.0548 H   0  0  0  0  0  0  0  0  0  0  0  0
   -0.0352    1.6978    0.0337 C   0  0  0  0  0  0  0  0  0  0  0  0
    0.0704    2.7725    0.0319 H   0  0  0  0  0  0  0  0  0  0  0  0
    1.1345    0.9903    0.0918 N   0  0  0  0  0  0  0  0  0  0  0  0
    2.0237    1.4568    0.1557 H   0  0  0  0  0  0  0  0  0  0  0  0
    1.1932   -0.3918    0.1158 C   0  0  0  0  0  0  0  0  0  0  0  0
    2.2364   -1.0112    0.1942 O   0  0  0  0  0  0  0  0  0  0  0  0
    0.7345    0.0359    3.7157 C   0  0  0  0  0  0  0  0  0  0  0  0
    1.2516   -0.8351    3.3385 H   0  0  0  0  0  0  0  0  0  0  0  0
    1.3401    0.8229    4.1431 H   0  0  0  0  0  0  0  0  0  0  0  0
   -0.5943    0.1365    3.6665 C   0  0  0  0  0  0  0  0  0  0  0  0
   -1.2063   -0.6510    3.2496 H   0  0  0  0  0  0  0  0  0  0  0  0
   -1.1061    1.0075    4.0505 H   0  0  0  0  0  0  0  0  0  0  0  0
  1  2  1  0  0  0  0
  1 11  1  0  0  0  0
  3  1  1  0  0  0  0
  4  3  2  0  0  0  0
  5  3  1  0  0  0  0
  5  7  2  0  0  0  0
  6  5  1  0  0  0  0
  7  9  1  0  0  0  0
  8  7  1  0  0  0  0
  9 11  1  0  0  0  0
  9 10  1  0  0  0  0
 11 12  2  0  0  0  0
 13 15  1  0  0  0  0
 14 13  1  0  0  0  0
 16 13  2  0  0  0  0
 16 18  1  0  0  0  0
 17 16  1  0  0  0  0
M  END
>  <SMILES>
[nH]1c(=O)cc[nH]c1=O.C=C

>  <MoleculeName>
UracilEthene110

>  <Distance Scale>
1.1

>  <Energy Value>
-2.96

$$$$
/home/S66X8/2775_10MeNH2MeNH2110.xyz
 OpenBabel06262409173D

 14 12  0  0  0  0  0  0  0  0999 V2000
   -0.6386    0.4709    0.0446 N   0  0  0  0  0  0  0  0  0  0  0  0
    0.1900   -0.1139   -0.0058 H   0  0  0  0  0  0  0  0  0  0  0  0
   -1.3005    0.0813   -0.6137 H   0  0  0  0  0  0  0  0  0  0  0  0
   -1.1987    0.3914    1.3919 C   0  0  0  0  0  0  0  0  0  0  0  0
   -2.0927    1.0092    1.4532 H   0  0  0  0  0  0  0  0  0  0  0  0
   -1.4627   -0.6158    1.7295 H   0  0  0  0  0  0  0  0  0  0  0  0
   -0.4803    0.7987    2.1011 H   0  0  0  0  0  0  0  0  0  0  0  0
    2.6548   -0.4951    0.2205 N   0  0  0  0  0  0  0  0  0  0  0  0
    2.9510   -0.2206   -0.7074 H   0  0  0  0  0  0  0  0  0  0  0  0
    3.2783   -1.2428    0.4957 H   0  0  0  0  0  0  0  0  0  0  0  0
    2.8150    0.6401    1.1342 C   0  0  0  0  0  0  0  0  0  0  0  0
    2.5448    0.3254    2.1399 H   0  0  0  0  0  0  0  0  0  0  0  0
    3.8224    1.0619    1.1712 H   0  0  0  0  0  0  0  0  0  0  0  0
    2.1225    1.4259    0.8416 H   0  0  0  0  0  0  0  0  0  0  0  0
  1  4  1  0  0  0  0
  2  1  1  0  0  0  0
  3  1  1  0  0  0  0
  4  5  1  0  0  0  0
  4  6  1  0  0  0  0
  4  7  1  0  0  0  0
  8 10  1  0  0  0  0
  8 11  1  0  0  0  0
  9  8  1  0  0  0  0
 11 13  1  0  0  0  0
 11 12  1  0  0  0  0
 14 11  1  0  0  0  0
M  END
>  <SMILES>
NC.NC

>  <MoleculeName>
MeNH2MeNH2110

>  <Distance Scale>
1.1

>  <Energy Value>
-3.75

$$$$
/home/S66X8/2712_02WaterMeOH125.xyz
 OpenBabel06262409173D

  9  7  0  0  0  0  0  0  0  0999 V2000
   -0.5253   -0.0510   -0.3145 O   0  0  0  0  0  0  0  0  0  0  0  0
   -0.9420    0.7479    0.0113 H   0  0  0  0  0  0  0  0  0  0  0  0
    0.4037    0.0598   -0.0736 H   0  0  0  0  0  0  0  0  0  0  0  0
    2.8496    0.0415    0.1124 O   0  0  0  0  0  0  0  0  0  0  0  0
    3.2176   -0.5306    0.7899 H   0  0  0  0  0  0  0  0  0  0  0  0
    3.3146   -0.4301   -1.1498 C   0  0  0  0  0  0  0  0  0  0  0  0
    2.8838    0.2210   -1.9029 H   0  0  0  0  0  0  0  0  0  0  0  0
    4.4006   -0.3793   -1.2241 H   0  0  0  0  0  0  0  0  0  0  0  0
    2.9863   -1.4500   -1.3489 H   0  0  0  0  0  0  0  0  0  0  0  0
  1  3  1  0  0  0  0
  1  2  1  0  0  0  0
  4  5  1  0  0  0  0
  6  4  1  0  0  0  0
  7  6  1  0  0  0  0
  8  6  1  0  0  0  0
  9  6  1  0  0  0  0
M  END
>  <SMILES>
O.OC

>  <MoleculeName>
WaterMeOH125

>  <Distance Scale>
1.25

>  <Energy Value>
-3.94

$$$$
/home/S66X8/2892_25PyridinePyridinepipi095.xyz
 OpenBabel06262409173D

 22 22  0  0  0  0  0  0  0  0999 V2000
    1.5725    0.2545   -0.2565 N   0  0  0  0  0  0  0  0  0  0  0  0
    0.9694   -0.9032    0.0445 C   0  0  0  0  0  0  0  0  0  0  0  0
    1.6136   -1.7722    0.1023 H   0  0  0  0  0  0  0  0  0  0  0  0
   -0.3982   -1.0288    0.2810 C   0  0  0  0  0  0  0  0  0  0  0  0
   -0.8184   -1.9917    0.5336 H   0  0  0  0  0  0  0  0  0  0  0  0
   -1.1958    0.1066    0.1954 C   0  0  0  0  0  0  0  0  0  0  0  0
   -2.2607    0.0495    0.3734 H   0  0  0  0  0  0  0  0  0  0  0  0
   -0.5871    1.3174   -0.1201 C   0  0  0  0  0  0  0  0  0  0  0  0
   -1.1618    2.2295   -0.2005 H   0  0  0  0  0  0  0  0  0  0  0  0
    0.7885    1.3397   -0.3322 C   0  0  0  0  0  0  0  0  0  0  0  0
    1.2884    2.2688   -0.5785 H   0  0  0  0  0  0  0  0  0  0  0  0
   -0.5036   -1.4903    3.5816 N   0  0  0  0  0  0  0  0  0  0  0  0
   -1.4361   -0.5297    3.6554 C   0  0  0  0  0  0  0  0  0  0  0  0
   -2.4389   -0.8607    3.8976 H   0  0  0  0  0  0  0  0  0  0  0  0
   -1.1741    0.8214    3.4460 C   0  0  0  0  0  0  0  0  0  0  0  0
   -1.9727    1.5459    3.5243 H   0  0  0  0  0  0  0  0  0  0  0  0
    0.1253    1.2106    3.1358 C   0  0  0  0  0  0  0  0  0  0  0  0
    0.3673    2.2496    2.9599 H   0  0  0  0  0  0  0  0  0  0  0  0
    1.1049    0.2277    3.0524 C   0  0  0  0  0  0  0  0  0  0  0  0
    2.1272    0.4745    2.8040 H   0  0  0  0  0  0  0  0  0  0  0  0
    0.7424   -1.0974    3.2856 C   0  0  0  0  0  0  0  0  0  0  0  0
    1.4863   -1.8830    3.2291 H   0  0  0  0  0  0  0  0  0  0  0  0
  1  2  1  0  0  0  0
  2  3  1  0  0  0  0
  2  4  2  0  0  0  0
  4  5  1  0  0  0  0
  6  4  1  0  0  0  0
  6  7  1  0  0  0  0
  8  6  2  0  0  0  0
  9  8  1  0  0  0  0
 10  1  2  0  0  0  0
 10  8  1  0  0  0  0
 11 10  1  0  0  0  0
 12 13  1  0  0  0  0
 13 14  1  0  0  0  0
 15 16  1  0  0  0  0
 15 13  2  0  0  0  0
 17 15  1  0  0  0  0
 18 17  1  0  0  0  0
 19 17  2  0  0  0  0
 19 21  1  0  0  0  0
 20 19  1  0  0  0  0
 21 12  2  0  0  0  0
 22 21  1  0  0  0  0
M  END
>  <SMILES>
n1ccccc1.n1ccccc1

>  <MoleculeName>
PyridinePyridinepipi095

>  <Distance Scale>
0.95

>  <Energy Value>
-3.17

$$$$
/home/S66X8/3206_64PeptideEthene105.xyz
 OpenBabel06262409173D

 18 16  0  0  0  0  0  0  0  0999 V2000
    1.6297    0.5030    0.2701 C   0  0  0  0  0  0  0  0  0  0  0  0
    1.6416    1.4592   -0.2481 H   0  0  0  0  0  0  0  0  0  0  0  0
    2.3153   -0.1836   -0.2176 H   0  0  0  0  0  0  0  0  0  0  0  0
    1.9697    0.6494    1.2940 H   0  0  0  0  0  0  0  0  0  0  0  0
    0.2618   -0.1329    0.3146 C   0  0  0  0  0  0  0  0  0  0  0  0
    0.0993   -1.3096    0.6118 O   0  0  0  0  0  0  0  0  0  0  0  0
   -0.7735    0.7025    0.0221 N   0  0  0  0  0  0  0  0  0  0  0  0
   -0.5690    1.6666   -0.1658 H   0  0  0  0  0  0  0  0  0  0  0  0
   -2.1500    0.2660    0.0951 C   0  0  0  0  0  0  0  0  0  0  0  0
   -2.1447   -0.8194    0.1009 H   0  0  0  0  0  0  0  0  0  0  0  0
   -2.6405    0.6158    1.0036 H   0  0  0  0  0  0  0  0  0  0  0  0
   -2.7077    0.6208   -0.7683 H   0  0  0  0  0  0  0  0  0  0  0  0
   -0.0198    0.5164    3.9479 C   0  0  0  0  0  0  0  0  0  0  0  0
   -0.0247    1.2586    4.7338 H   0  0  0  0  0  0  0  0  0  0  0  0
   -0.6683    0.6842    3.0993 H   0  0  0  0  0  0  0  0  0  0  0  0
    0.7487   -0.5706    4.0178 C   0  0  0  0  0  0  0  0  0  0  0  0
    1.3940   -0.7424    4.8679 H   0  0  0  0  0  0  0  0  0  0  0  0
    0.7436   -1.3058    3.2254 H   0  0  0  0  0  0  0  0  0  0  0  0
  1  5  1  0  0  0  0
  1  4  1  0  0  0  0
  2  1  1  0  0  0  0
  3  1  1  0  0  0  0
  5  6  2  0  0  0  0
  7  9  1  0  0  0  0
  7  5  1  0  0  0  0
  8  7  1  0  0  0  0
  9 10  1  0  0  0  0
  9 11  1  0  0  0  0
 12  9  1  0  0  0  0
 13 16  2  0  0  0  0
 13 14  1  0  0  0  0
 15 13  1  0  0  0  0
 16 17  1  0  0  0  0
 18 16  1  0  0  0  0
M  END
>  <SMILES>
CC(=O)NC.C=C

>  <MoleculeName>
PeptideEthene105

>  <Distance Scale>
1.05

>  <Energy Value>
-2.85

$$$$
/home/S66X8/2955_33PyridineEthene090.xyz
 OpenBabel06262409173D

 17 16  0  0  0  0  0  0  0  0999 V2000
    1.3814   -0.0002    0.1315 N   0  0  0  0  0  0  0  0  0  0  0  0
    0.6794   -1.1402    0.0921 C   0  0  0  0  0  0  0  0  0  0  0  0
    1.2587   -2.0550    0.1259 H   0  0  0  0  0  0  0  0  0  0  0  0
   -0.7097   -1.1931    0.0067 C   0  0  0  0  0  0  0  0  0  0  0  0
   -1.2141   -2.1486   -0.0253 H   0  0  0  0  0  0  0  0  0  0  0  0
   -1.4216    0.0001   -0.0408 C   0  0  0  0  0  0  0  0  0  0  0  0
   -2.5007    0.0003   -0.1092 H   0  0  0  0  0  0  0  0  0  0  0  0
   -0.7094    1.1932    0.0065 C   0  0  0  0  0  0  0  0  0  0  0  0
   -1.2135    2.1487   -0.0255 H   0  0  0  0  0  0  0  0  0  0  0  0
    0.6797    1.1400    0.0919 C   0  0  0  0  0  0  0  0  0  0  0  0
    1.2593    2.0545    0.1255 H   0  0  0  0  0  0  0  0  0  0  0  0
    0.0163    0.6664    3.1166 C   0  0  0  0  0  0  0  0  0  0  0  0
    0.9267    1.2259    2.9575 H   0  0  0  0  0  0  0  0  0  0  0  0
   -0.8933    1.2288    3.2736 H   0  0  0  0  0  0  0  0  0  0  0  0
    0.0166   -0.6663    3.1167 C   0  0  0  0  0  0  0  0  0  0  0  0
    0.9273   -1.2253    2.9577 H   0  0  0  0  0  0  0  0  0  0  0  0
   -0.8927   -1.2291    3.2738 H   0  0  0  0  0  0  0  0  0  0  0  0
  2  3  1  0  0  0  0
  2  1  1  0  0  0  0
  4  2  2  0  0  0  0
  5  4  1  0  0  0  0
  6  8  2  0  0  0  0
  6  4  1  0  0  0  0
  7  6  1  0  0  0  0
  8 10  1  0  0  0  0
  9  8  1  0  0  0  0
 10 11  1  0  0  0  0
 10  1  2  0  0  0  0
 12 15  2  0  0  0  0
 12 14  1  0  0  0  0
 13 12  1  0  0  0  0
 15 17  1  0  0  0  0
 16 15  1  0  0  0  0
M  END
>  <SMILES>
n1ccccc1.C=C

>  <MoleculeName>
PyridineEthene090

>  <Distance Scale>
0.9

>  <Energy Value>
-0.89

$$$$
/home/S66X8/3181_61PentaneAcOH100.xyz
 OpenBabel06262409173D

 25 23  0  0  0  0  0  0  0  0999 V2000
   -2.2753   -0.1351    0.8313 C   0  0  0  0  0  0  0  0  0  0  0  0
   -2.4907   -0.7279   -0.0576 H   0  0  0  0  0  0  0  0  0  0  0  0
   -2.2263   -0.8184    1.6788 H   0  0  0  0  0  0  0  0  0  0  0  0
   -3.1120    0.5449    0.9874 H   0  0  0  0  0  0  0  0  0  0  0  0
   -0.9617    0.6193    0.6694 C   0  0  0  0  0  0  0  0  0  0  0  0
   -0.7887    1.2504    1.5447 H   0  0  0  0  0  0  0  0  0  0  0  0
   -1.0262    1.2954   -0.1865 H   0  0  0  0  0  0  0  0  0  0  0  0
    0.2265   -0.3147    0.4800 C   0  0  0  0  0  0  0  0  0  0  0  0
    0.3094   -0.9751    1.3480 H   0  0  0  0  0  0  0  0  0  0  0  0
    0.0392   -0.9660   -0.3788 H   0  0  0  0  0  0  0  0  0  0  0  0
    1.5430    0.4212    0.2690 C   0  0  0  0  0  0  0  0  0  0  0  0
    1.7116    1.1078    1.1024 H   0  0  0  0  0  0  0  0  0  0  0  0
    1.4661    1.0437   -0.6253 H   0  0  0  0  0  0  0  0  0  0  0  0
    2.7276   -0.5269    0.1375 C   0  0  0  0  0  0  0  0  0  0  0  0
    2.5887   -1.2032   -0.7058 H   0  0  0  0  0  0  0  0  0  0  0  0
    3.6615    0.0117   -0.0160 H   0  0  0  0  0  0  0  0  0  0  0  0
    2.8352   -1.1374    1.0341 H   0  0  0  0  0  0  0  0  0  0  0  0
   -0.4986   -0.2918    4.1983 C   0  0  0  0  0  0  0  0  0  0  0  0
   -0.9212   -1.4069    4.0011 O   0  0  0  0  0  0  0  0  0  0  0  0
   -1.3123    0.7672    4.4309 O   0  0  0  0  0  0  0  0  0  0  0  0
   -2.2131    0.4128    4.3903 H   0  0  0  0  0  0  0  0  0  0  0  0
    0.9417    0.1179    4.2155 C   0  0  0  0  0  0  0  0  0  0  0  0
    1.5675   -0.7523    4.0573 H   0  0  0  0  0  0  0  0  0  0  0  0
    1.1177    0.8522    3.4324 H   0  0  0  0  0  0  0  0  0  0  0  0
    1.1790    0.5872    5.1673 H   0  0  0  0  0  0  0  0  0  0  0  0
  1  4  1  0  0  0  0
  1  3  1  0  0  0  0
  2  1  1  0  0  0  0
  5  1  1  0  0  0  0
  5  6  1  0  0  0  0
  7  5  1  0  0  0  0
  8  5  1  0  0  0  0
  8  9  1  0  0  0  0
 10  8  1  0  0  0  0
 11  8  1  0  0  0  0
 11 12  1  0  0  0  0
 13 11  1  0  0  0  0
 14 11  1  0  0  0  0
 14 17  1  0  0  0  0
 15 14  1  0  0  0  0
 16 14  1  0  0  0  0
 18 22  1  0  0  0  0
 18 20  1  0  0  0  0
 19 18  2  0  0  0  0
 21 20  1  0  0  0  0
 22 25  1  0  0  0  0
 23 22  1  0  0  0  0
 24 22  1  0  0  0  0
M  END
>  <SMILES>
CCCCC.C(=O)(O)C

>  <MoleculeName>
PentaneAcOH100

>  <Distance Scale>
1.0

>  <Energy Value>
-2.88

$$$$
/home/S66X8/2962_33PyridineEthene200.xyz
 OpenBabel06262409173D

 17 16  0  0  0  0  0  0  0  0999 V2000
    1.3814   -0.0002    0.1315 N   0  0  0  0  0  0  0  0  0  0  0  0
    0.6794   -1.1402    0.0921 C   0  0  0  0  0  0  0  0  0  0  0  0
    1.2587   -2.0550    0.1259 H   0  0  0  0  0  0  0  0  0  0  0  0
   -0.7097   -1.1931    0.0067 C   0  0  0  0  0  0  0  0  0  0  0  0
   -1.2141   -2.1486   -0.0253 H   0  0  0  0  0  0  0  0  0  0  0  0
   -1.4216    0.0001   -0.0408 C   0  0  0  0  0  0  0  0  0  0  0  0
   -2.5007    0.0003   -0.1092 H   0  0  0  0  0  0  0  0  0  0  0  0
   -0.7094    1.1932    0.0065 C   0  0  0  0  0  0  0  0  0  0  0  0
   -1.2135    2.1487   -0.0255 H   0  0  0  0  0  0  0  0  0  0  0  0
    0.6797    1.1400    0.0919 C   0  0  0  0  0  0  0  0  0  0  0  0
    1.2593    2.0545    0.1255 H   0  0  0  0  0  0  0  0  0  0  0  0
    0.0480    0.6666    6.6387 C   0  0  0  0  0  0  0  0  0  0  0  0
    0.9584    1.2261    6.4796 H   0  0  0  0  0  0  0  0  0  0  0  0
   -0.8616    1.2290    6.7957 H   0  0  0  0  0  0  0  0  0  0  0  0
    0.0483   -0.6661    6.6388 C   0  0  0  0  0  0  0  0  0  0  0  0
    0.9590   -1.2252    6.4798 H   0  0  0  0  0  0  0  0  0  0  0  0
   -0.8610   -1.2289    6.7959 H   0  0  0  0  0  0  0  0  0  0  0  0
  2  3  1  0  0  0  0
  2  1  1  0  0  0  0
  4  2  2  0  0  0  0
  5  4  1  0  0  0  0
  6  8  2  0  0  0  0
  6  4  1  0  0  0  0
  7  6  1  0  0  0  0
  8 10  1  0  0  0  0
  9  8  1  0  0  0  0
 10 11  1  0  0  0  0
 10  1  2  0  0  0  0
 12 15  2  0  0  0  0
 12 14  1  0  0  0  0
 13 12  1  0  0  0  0
 15 17  1  0  0  0  0
 16 15  1  0  0  0  0
M  END
>  <SMILES>
n1ccccc1.C=C

>  <MoleculeName>
PyridineEthene200

>  <Distance Scale>
2.0

>  <Energy Value>
-0.05

$$$$
/home/S66X8/2721_03WaterMeNH2150.xyz
 OpenBabel06262409173D

 10  8  0  0  0  0  0  0  0  0999 V2000
   -0.6875   -0.1117   -0.0196 O   0  0  0  0  0  0  0  0  0  0  0  0
   -1.0461    0.7759    0.0127 H   0  0  0  0  0  0  0  0  0  0  0  0
    0.2740    0.0259   -0.0035 H   0  0  0  0  0  0  0  0  0  0  0  0
    3.2897    0.1448    0.0109 N   0  0  0  0  0  0  0  0  0  0  0  0
    3.5851   -0.4078   -0.7839 H   0  0  0  0  0  0  0  0  0  0  0  0
    3.5998   -0.3659    0.8278 H   0  0  0  0  0  0  0  0  0  0  0  0
    3.9490    1.4532   -0.0294 C   0  0  0  0  0  0  0  0  0  0  0  0
    3.6385    2.0349    0.8352 H   0  0  0  0  0  0  0  0  0  0  0  0
    5.0404    1.4139   -0.0383 H   0  0  0  0  0  0  0  0  0  0  0  0
    3.6223    1.9891   -0.9172 H   0  0  0  0  0  0  0  0  0  0  0  0
  1  3  1  0  0  0  0
  1  2  1  0  0  0  0
  4  6  1  0  0  0  0
  5  4  1  0  0  0  0
  7  4  1  0  0  0  0
  7  8  1  0  0  0  0
  9  7  1  0  0  0  0
 10  7  1  0  0  0  0
M  END
>  <SMILES>
O.NC

>  <MoleculeName>
WaterMeNH2150

>  <Distance Scale>
1.5

>  <Energy Value>
-2.98

$$$$
/home/S66X8/2751_07MeOHPeptide110.xyz
 OpenBabel06262409173D

 18 16  0  0  0  0  0  0  0  0999 V2000
   -0.2088   -0.2169   -1.0324 O   0  0  0  0  0  0  0  0  0  0  0  0
    0.7111   -0.3869   -0.7740 H   0  0  0  0  0  0  0  0  0  0  0  0
   -1.0222   -0.7412   -0.0055 C   0  0  0  0  0  0  0  0  0  0  0  0
   -2.0575   -0.5387   -0.2686 H   0  0  0  0  0  0  0  0  0  0  0  0
   -0.9077   -1.8218    0.1085 H   0  0  0  0  0  0  0  0  0  0  0  0
   -0.8246   -0.2755    0.9646 H   0  0  0  0  0  0  0  0  0  0  0  0
    2.1757    1.9050    0.5021 C   0  0  0  0  0  0  0  0  0  0  0  0
    2.6821    2.8664    0.4672 H   0  0  0  0  0  0  0  0  0  0  0  0
    1.7652    1.7588    1.5000 H   0  0  0  0  0  0  0  0  0  0  0  0
    1.3461    1.8955   -0.1994 H   0  0  0  0  0  0  0  0  0  0  0  0
    3.0914    0.7500    0.1862 C   0  0  0  0  0  0  0  0  0  0  0  0
    2.6672   -0.3699   -0.0989 O   0  0  0  0  0  0  0  0  0  0  0  0
    4.4175    1.0118    0.2454 N   0  0  0  0  0  0  0  0  0  0  0  0
    4.7155    1.9222    0.5431 H   0  0  0  0  0  0  0  0  0  0  0  0
    5.3999   -0.0283    0.0226 C   0  0  0  0  0  0  0  0  0  0  0  0
    5.0434   -0.6793   -0.7695 H   0  0  0  0  0  0  0  0  0  0  0  0
    6.3403    0.4252   -0.2759 H   0  0  0  0  0  0  0  0  0  0  0  0
    5.5594   -0.6329    0.9147 H   0  0  0  0  0  0  0  0  0  0  0  0
  1  2  1  0  0  0  0
  1  3  1  0  0  0  0
  3  5  1  0  0  0  0
  3  6  1  0  0  0  0
  4  3  1  0  0  0  0
  7  9  1  0  0  0  0
  8  7  1  0  0  0  0
 10  7  1  0  0  0  0
 11 13  1  0  0  0  0
 11  7  1  0  0  0  0
 12 11  2  0  0  0  0
 13 14  1  0  0  0  0
 15 13  1  0  0  0  0
 15 18  1  0  0  0  0
 16 15  1  0  0  0  0
 17 15  1  0  0  0  0
M  END
>  <SMILES>
OC.CC(=O)NC

>  <MoleculeName>
MeOHPeptide110

>  <Distance Scale>
1.1

>  <Energy Value>
-7.66

$$$$
/home/S66X8/2833_17UracilUracilBP150.xyz
 OpenBabel06262409173D

 24 24  0  0  0  0  0  0  0  0999 V2000
   -0.7300    0.0228    0.0009 N   0  0  0  0  0  0  0  0  0  0  0  0
    0.2984    0.0740    0.0016 H   0  0  0  0  0  0  0  0  0  0  0  0
   -1.2968   -1.2404    0.0015 C   0  0  0  0  0  0  0  0  0  0  0  0
   -0.5941   -2.2535    0.0026 O   0  0  0  0  0  0  0  0  0  0  0  0
   -2.7436   -1.2623    0.0005 C   0  0  0  0  0  0  0  0  0  0  0  0
   -3.2496   -2.2118    0.0008 H   0  0  0  0  0  0  0  0  0  0  0  0
   -3.4220   -0.0959   -0.0009 C   0  0  0  0  0  0  0  0  0  0  0  0
   -4.5009   -0.0492   -0.0017 H   0  0  0  0  0  0  0  0  0  0  0  0
   -2.7748    1.1054   -0.0014 N   0  0  0  0  0  0  0  0  0  0  0  0
   -3.2838    1.9739   -0.0025 H   0  0  0  0  0  0  0  0  0  0  0  0
   -1.3915    1.2370   -0.0005 C   0  0  0  0  0  0  0  0  0  0  0  0
   -0.8398    2.3170   -0.0010 O   0  0  0  0  0  0  0  0  0  0  0  0
    5.0397   -1.1324    0.0005 N   0  0  0  0  0  0  0  0  0  0  0  0
    5.4869   -0.2258    0.0009 H   0  0  0  0  0  0  0  0  0  0  0  0
    5.8957   -2.2470   -0.0010 C   0  0  0  0  0  0  0  0  0  0  0  0
    7.1052   -2.0953   -0.0017 O   0  0  0  0  0  0  0  0  0  0  0  0
    5.1815   -3.5092   -0.0015 C   0  0  0  0  0  0  0  0  0  0  0  0
    5.7481   -4.4242   -0.0026 H   0  0  0  0  0  0  0  0  0  0  0  0
    3.8314   -3.5130   -0.0005 C   0  0  0  0  0  0  0  0  0  0  0  0
    3.2544   -4.4260   -0.0009 H   0  0  0  0  0  0  0  0  0  0  0  0
    3.0934   -2.3621    0.0009 N   0  0  0  0  0  0  0  0  0  0  0  0
    2.0670   -2.3836    0.0016 H   0  0  0  0  0  0  0  0  0  0  0  0
    3.6661   -1.1175    0.0015 C   0  0  0  0  0  0  0  0  0  0  0  0
    3.0158   -0.0762    0.0027 O   0  0  0  0  0  0  0  0  0  0  0  0
  1  3  1  0  0  0  0
  1  2  1  0  0  0  0
  3  4  2  0  0  0  0
  5  6  1  0  0  0  0
  5  3  1  0  0  0  0
  7  5  2  0  0  0  0
  8  7  1  0  0  0  0
  9  7  1  0  0  0  0
  9 11  1  0  0  0  0
 10  9  1  0  0  0  0
 11  1  1  0  0  0  0
 12 11  2  0  0  0  0
 13 14  1  0  0  0  0
 13 23  1  0  0  0  0
 15 13  1  0  0  0  0
 16 15  2  0  0  0  0
 17 15  1  0  0  0  0
 17 19  2  0  0  0  0
 18 17  1  0  0  0  0
 19 21  1  0  0  0  0
 20 19  1  0  0  0  0
 21 23  1  0  0  0  0
 21 22  1  0  0  0  0
 23 24  2  0  0  0  0
M  END
>  <SMILES>
[nH]1c(=O)cc[nH]c1=O.[nH]1c(=O)cc[nH]c1=O

>  <MoleculeName>
UracilUracilBP150

>  <Distance Scale>
1.5

>  <Energy Value>
-8.35

$$$$
/home/S66X8/3219_66MeNH2Pyridine090.xyz
 OpenBabel06262409173D

 18 17  0  0  0  0  0  0  0  0999 V2000
   -0.5411    0.0296   -0.2090 N   0  0  0  0  0  0  0  0  0  0  0  0
    0.0556   -0.7861   -0.1303 H   0  0  0  0  0  0  0  0  0  0  0  0
   -1.4697   -0.2747    0.0531 H   0  0  0  0  0  0  0  0  0  0  0  0
   -0.0788    1.0424    0.7385 C   0  0  0  0  0  0  0  0  0  0  0  0
   -0.7202    1.9194    0.6720 H   0  0  0  0  0  0  0  0  0  0  0  0
   -0.0508    0.7238    1.7855 H   0  0  0  0  0  0  0  0  0  0  0  0
    0.9264    1.3566    0.4620 H   0  0  0  0  0  0  0  0  0  0  0  0
    2.1284   -1.2129    0.0152 N   0  0  0  0  0  0  0  0  0  0  0  0
    2.4669   -0.4005   -0.9965 C   0  0  0  0  0  0  0  0  0  0  0  0
    1.9242   -0.5451   -1.9219 H   0  0  0  0  0  0  0  0  0  0  0  0
    3.4382    0.5916   -0.8962 C   0  0  0  0  0  0  0  0  0  0  0  0
    3.6630    1.2160   -1.7490 H   0  0  0  0  0  0  0  0  0  0  0  0
    4.0990    0.7612    0.3161 C   0  0  0  0  0  0  0  0  0  0  0  0
    4.8569    1.5234    0.4325 H   0  0  0  0  0  0  0  0  0  0  0  0
    3.7589   -0.0738    1.3752 C   0  0  0  0  0  0  0  0  0  0  0  0
    4.2415    0.0167    2.3379 H   0  0  0  0  0  0  0  0  0  0  0  0
    2.7751   -1.0386    1.1760 C   0  0  0  0  0  0  0  0  0  0  0  0
    2.4890   -1.7023    1.9826 H   0  0  0  0  0  0  0  0  0  0  0  0
  1  2  1  0  0  0  0
  1  3  1  0  0  0  0
  1  4  1  0  0  0  0
  4  6  1  0  0  0  0
  5  4  1  0  0  0  0
  7  4  1  0  0  0  0
  8 17  1  0  0  0  0
  9 11  1  0  0  0  0
  9  8  2  0  0  0  0
 10  9  1  0  0  0  0
 11 13  2  0  0  0  0
 12 11  1  0  0  0  0
 13 14  1  0  0  0  0
 13 15  1  0  0  0  0
 15 16  1  0  0  0  0
 17 15  2  0  0  0  0
 17 18  1  0  0  0  0
M  END
>  <SMILES>
NC.n1ccccc1

>  <MoleculeName>
MeNH2Pyridine090

>  <Distance Scale>
0.9

>  <Energy Value>
-3.45

$$$$
/home/S66X8/2879_23AcNH2Uracil110.xyz
 OpenBabel06262409173D

 21 20  0  0  0  0  0  0  0  0999 V2000
   -1.2327    1.2116   -0.1416 C   0  0  0  0  0  0  0  0  0  0  0  0
   -0.5713    2.2420    0.0256 O   0  0  0  0  0  0  0  0  0  0  0  0
   -0.6706    0.0039   -0.3143 N   0  0  0  0  0  0  0  0  0  0  0  0
    0.3438   -0.0906   -0.3083 H   0  0  0  0  0  0  0  0  0  0  0  0
   -1.2442   -0.8063   -0.4467 H   0  0  0  0  0  0  0  0  0  0  0  0
   -2.7382    1.2668   -0.1559 C   0  0  0  0  0  0  0  0  0  0  0  0
   -3.0780    1.6466    0.8045 H   0  0  0  0  0  0  0  0  0  0  0  0
   -3.2021    0.3029   -0.3462 H   0  0  0  0  0  0  0  0  0  0  0  0
   -3.0500    1.9755   -0.9186 H   0  0  0  0  0  0  0  0  0  0  0  0
    4.3744    1.1201   -0.1173 N   0  0  0  0  0  0  0  0  0  0  0  0
    4.8644    0.2442   -0.2352 H   0  0  0  0  0  0  0  0  0  0  0  0
    5.1780    2.2630    0.0332 C   0  0  0  0  0  0  0  0  0  0  0  0
    6.3935    2.1673    0.0180 O   0  0  0  0  0  0  0  0  0  0  0  0
    4.4054    3.4783    0.1963 C   0  0  0  0  0  0  0  0  0  0  0  0
    4.9272    4.4115    0.3194 H   0  0  0  0  0  0  0  0  0  0  0  0
    3.0562    3.4166    0.1907 C   0  0  0  0  0  0  0  0  0  0  0  0
    2.4358    4.2930    0.3083 H   0  0  0  0  0  0  0  0  0  0  0  0
    2.3711    2.2443    0.0361 N   0  0  0  0  0  0  0  0  0  0  0  0
    1.3384    2.2353    0.0353 H   0  0  0  0  0  0  0  0  0  0  0  0
    3.0020    1.0399   -0.1262 C   0  0  0  0  0  0  0  0  0  0  0  0
    2.4048   -0.0241   -0.2680 O   0  0  0  0  0  0  0  0  0  0  0  0
  1  2  2  0  0  0  0
  3  4  1  0  0  0  0
  3  1  1  0  0  0  0
  5  3  1  0  0  0  0
  6  1  1  0  0  0  0
  6  7  1  0  0  0  0
  8  6  1  0  0  0  0
  9  6  1  0  0  0  0
 10 12  1  0  0  0  0
 11 10  1  0  0  0  0
 12 14  1  0  0  0  0
 13 12  2  0  0  0  0
 14 15  1  0  0  0  0
 16 14  2  0  0  0  0
 16 17  1  0  0  0  0
 18 16  1  0  0  0  0
 19 18  1  0  0  0  0
 20 10  1  0  0  0  0
 20 18  1  0  0  0  0
 21 20  2  0  0  0  0
M  END
>  <SMILES>
C(=O)(N)C.[nH]1c(=O)cc[nH]c1=O

>  <MoleculeName>
AcNH2Uracil110

>  <Distance Scale>
1.1

>  <Energy Value>
-18.22

$$$$
/home/S66X8/2725_04WaterPeptide100.xyz
 OpenBabel06262409173D

 15 13  0  0  0  0  0  0  0  0999 V2000
   -0.3920   -0.3847    0.0761 O   0  0  0  0  0  0  0  0  0  0  0  0
   -0.9115    0.4138    0.1776 H   0  0  0  0  0  0  0  0  0  0  0  0
    0.5249   -0.0685    0.0905 H   0  0  0  0  0  0  0  0  0  0  0  0
    2.2408   -2.2408   -0.2310 C   0  0  0  0  0  0  0  0  0  0  0  0
    2.8907   -3.1019   -0.3640 H   0  0  0  0  0  0  0  0  0  0  0  0
    1.5598   -2.1634   -1.0749 H   0  0  0  0  0  0  0  0  0  0  0  0
    1.6278   -2.3796    0.6560 H   0  0  0  0  0  0  0  0  0  0  0  0
    2.9955   -0.9428   -0.0985 C   0  0  0  0  0  0  0  0  0  0  0  0
    2.4188    0.1325    0.0581 O   0  0  0  0  0  0  0  0  0  0  0  0
    4.3462   -1.0403   -0.1631 N   0  0  0  0  0  0  0  0  0  0  0  0
    4.7471   -1.9509   -0.2926 H   0  0  0  0  0  0  0  0  0  0  0  0
    5.2144    0.1116   -0.0536 C   0  0  0  0  0  0  0  0  0  0  0  0
    4.5779    0.9799    0.0812 H   0  0  0  0  0  0  0  0  0  0  0  0
    5.8800    0.0202    0.8025 H   0  0  0  0  0  0  0  0  0  0  0  0
    5.8089    0.2411   -0.9559 H   0  0  0  0  0  0  0  0  0  0  0  0
  1  3  1  0  0  0  0
  1  2  1  0  0  0  0
  4  8  1  0  0  0  0
  4  7  1  0  0  0  0
  5  4  1  0  0  0  0
  6  4  1  0  0  0  0
  8  9  2  0  0  0  0
 10  8  1  0  0  0  0
 10 12  1  0  0  0  0
 11 10  1  0  0  0  0
 12 13  1  0  0  0  0
 12 14  1  0  0  0  0
 15 12  1  0  0  0  0
M  END
>  <SMILES>
O.CC(=O)NC

>  <MoleculeName>
WaterPeptide100

>  <Distance Scale>
1.0

>  <Energy Value>
-8.08

$$$$
/home/S66X8/3115_53BenzeneAcNH2NHpi090.xyz
 OpenBabel06262409173D

 21 20  0  0  0  0  0  0  0  0999 V2000
    0.8556    0.3585    1.0498 C   0  0  0  0  0  0  0  0  0  0  0  0
    1.5138    0.9027    1.7128 H   0  0  0  0  0  0  0  0  0  0  0  0
    1.3429   -0.6754    0.2512 C   0  0  0  0  0  0  0  0  0  0  0  0
    2.3929   -0.9333    0.2820 H   0  0  0  0  0  0  0  0  0  0  0  0
    0.4778   -1.3767   -0.5878 C   0  0  0  0  0  0  0  0  0  0  0  0
    0.8561   -2.1789   -1.2068 H   0  0  0  0  0  0  0  0  0  0  0  0
   -0.8748   -1.0426   -0.6305 C   0  0  0  0  0  0  0  0  0  0  0  0
   -1.5454   -1.5857   -1.2824 H   0  0  0  0  0  0  0  0  0  0  0  0
   -1.3624   -0.0070    0.1658 C   0  0  0  0  0  0  0  0  0  0  0  0
   -2.4116    0.2535    0.1308 H   0  0  0  0  0  0  0  0  0  0  0  0
   -0.4984    0.6932    1.0070 C   0  0  0  0  0  0  0  0  0  0  0  0
   -0.8661    1.4903    1.6380 H   0  0  0  0  0  0  0  0  0  0  0  0
    0.1193    0.6160    4.5938 C   0  0  0  0  0  0  0  0  0  0  0  0
    0.3658    1.6595    4.0066 O   0  0  0  0  0  0  0  0  0  0  0  0
   -0.1847   -0.5390    3.9427 N   0  0  0  0  0  0  0  0  0  0  0  0
   -0.1595   -0.5460    2.9360 H   0  0  0  0  0  0  0  0  0  0  0  0
   -0.3405   -1.3945    4.4384 H   0  0  0  0  0  0  0  0  0  0  0  0
    0.1422    0.5211    6.1022 C   0  0  0  0  0  0  0  0  0  0  0  0
    1.1739    0.6053    6.4373 H   0  0  0  0  0  0  0  0  0  0  0  0
   -0.2798   -0.4055    6.4833 H   0  0  0  0  0  0  0  0  0  0  0  0
   -0.4073    1.3650    6.5090 H   0  0  0  0  0  0  0  0  0  0  0  0
  1  2  1  0  0  0  0
  3  4  1  0  0  0  0
  3  1  2  0  0  0  0
  5  3  1  0  0  0  0
  6  5  1  0  0  0  0
  7  5  2  0  0  0  0
  7  9  1  0  0  0  0
  8  7  1  0  0  0  0
  9 11  2  0  0  0  0
 10  9  1  0  0  0  0
 11  1  1  0  0  0  0
 11 12  1  0  0  0  0
 13 18  1  0  0  0  0
 14 13  2  0  0  0  0
 15 17  1  0  0  0  0
 15 13  1  0  0  0  0
 16 15  1  0  0  0  0
 18 19  1  0  0  0  0
 18 20  1  0  0  0  0
 18 21  1  0  0  0  0
M  END
>  <SMILES>
c1ccccc1.C(=O)(N)C

>  <MoleculeName>
BenzeneAcNH2NHpi090

>  <Distance Scale>
0.9

>  <Energy Value>
-3.79

$$$$
/home/S66X8/2743_06MeOHMeNH2110.xyz
 OpenBabel06262409173D

 13 11  0  0  0  0  0  0  0  0999 V2000
   -0.7069    0.0458    0.0064 O   0  0  0  0  0  0  0  0  0  0  0  0
    0.2656    0.0717    0.0013 H   0  0  0  0  0  0  0  0  0  0  0  0
   -1.0767   -1.3139    0.0016 C   0  0  0  0  0  0  0  0  0  0  0  0
   -2.1629   -1.3632    0.0059 H   0  0  0  0  0  0  0  0  0  0  0  0
   -0.7234   -1.8447   -0.8877 H   0  0  0  0  0  0  0  0  0  0  0  0
   -0.7161   -1.8528    0.8831 H   0  0  0  0  0  0  0  0  0  0  0  0
    2.4286   -0.0491   -0.0039 N   0  0  0  0  0  0  0  0  0  0  0  0
    2.7993    0.4587    0.7892 H   0  0  0  0  0  0  0  0  0  0  0  0
    2.7994    0.4152   -0.8231 H   0  0  0  0  0  0  0  0  0  0  0  0
    2.9064   -1.4352    0.0336 C   0  0  0  0  0  0  0  0  0  0  0  0
    2.5145   -1.9692   -0.8286 H   0  0  0  0  0  0  0  0  0  0  0  0
    3.9931   -1.5419    0.0366 H   0  0  0  0  0  0  0  0  0  0  0  0
    2.5143   -1.9219    0.9232 H   0  0  0  0  0  0  0  0  0  0  0  0
  2  1  1  0  0  0  0
  3  4  1  0  0  0  0
  3  1  1  0  0  0  0
  3  6  1  0  0  0  0
  5  3  1  0  0  0  0
  7 10  1  0  0  0  0
  7  8  1  0  0  0  0
  9  7  1  0  0  0  0
 10 12  1  0  0  0  0
 10 13  1  0  0  0  0
 11 10  1  0  0  0  0
M  END
>  <SMILES>
OC.NC

>  <MoleculeName>
MeOHMeNH2110

>  <Distance Scale>
1.1

>  <Energy Value>
-6.97

$$$$
/home/S66X8/3161_58PyridinePyridineCHN150.xyz
 OpenBabel06262409173D

 22 22  0  0  0  0  0  0  0  0999 V2000
   -0.9412    0.7900    0.0117 N   0  0  0  0  0  0  0  0  0  0  0  0
   -0.9228   -0.5524    0.0354 C   0  0  0  0  0  0  0  0  0  0  0  0
    0.0572   -1.0156    0.0514 H   0  0  0  0  0  0  0  0  0  0  0  0
   -2.0765   -1.3330    0.0393 C   0  0  0  0  0  0  0  0  0  0  0  0
   -1.9965   -2.4106    0.0589 H   0  0  0  0  0  0  0  0  0  0  0  0
   -3.3163   -0.7033    0.0176 C   0  0  0  0  0  0  0  0  0  0  0  0
   -4.2316   -1.2791    0.0198 H   0  0  0  0  0  0  0  0  0  0  0  0
   -3.3489    0.6870   -0.0071 C   0  0  0  0  0  0  0  0  0  0  0  0
   -4.2854    1.2261   -0.0247 H   0  0  0  0  0  0  0  0  0  0  0  0
   -2.1431    1.3826   -0.0089 C   0  0  0  0  0  0  0  0  0  0  0  0
   -2.1381    2.4657   -0.0278 H   0  0  0  0  0  0  0  0  0  0  0  0
    4.0816   -0.9089    0.0404 N   0  0  0  0  0  0  0  0  0  0  0  0
    5.2834   -1.5021    0.0425 C   0  0  0  0  0  0  0  0  0  0  0  0
    5.2782   -2.5850    0.0644 H   0  0  0  0  0  0  0  0  0  0  0  0
    6.4893   -0.8071    0.0185 C   0  0  0  0  0  0  0  0  0  0  0  0
    7.4258   -1.3467    0.0216 H   0  0  0  0  0  0  0  0  0  0  0  0
    6.4570    0.5832   -0.0092 C   0  0  0  0  0  0  0  0  0  0  0  0
    7.3724    1.1584   -0.0284 H   0  0  0  0  0  0  0  0  0  0  0  0
    5.2173    1.2135   -0.0117 C   0  0  0  0  0  0  0  0  0  0  0  0
    5.1376    2.2910   -0.0328 H   0  0  0  0  0  0  0  0  0  0  0  0
    4.0634    0.4335    0.0135 C   0  0  0  0  0  0  0  0  0  0  0  0
    3.0835    0.8971    0.0118 H   0  0  0  0  0  0  0  0  0  0  0  0
  1  2  1  0  0  0  0
  2  4  2  0  0  0  0
  2  3  1  0  0  0  0
  4  5  1  0  0  0  0
  6  7  1  0  0  0  0
  6  4  1  0  0  0  0
  8  6  2  0  0  0  0
  9  8  1  0  0  0  0
 10  8  1  0  0  0  0
 10  1  2  0  0  0  0
 11 10  1  0  0  0  0
 12 13  1  0  0  0  0
 13 14  1  0  0  0  0
 15 16  1  0  0  0  0
 15 13  2  0  0  0  0
 17 15  1  0  0  0  0
 18 17  1  0  0  0  0
 19 17  2  0  0  0  0
 19 21  1  0  0  0  0
 20 19  1  0  0  0  0
 21 12  2  0  0  0  0
 22 21  1  0  0  0  0
M  END
>  <SMILES>
n1ccccc1.n1ccccc1

>  <MoleculeName>
PyridinePyridineCHN150

>  <Distance Scale>
1.5

>  <Energy Value>
-1.01

$$$$
/home/S66X8/2951_32UracilEthyne110.xyz
 OpenBabel06262409173D

 16 15  0  0  0  0  0  0  0  0999 V2000
   -0.0555   -0.9480    0.0100 N   0  0  0  0  0  0  0  0  0  0  0  0
   -0.0573   -1.9577    0.0551 H   0  0  0  0  0  0  0  0  0  0  0  0
   -1.3140   -0.3351   -0.0646 C   0  0  0  0  0  0  0  0  0  0  0  0
   -2.3289   -1.0079   -0.1231 O   0  0  0  0  0  0  0  0  0  0  0  0
   -1.2484    1.1161   -0.0665 C   0  0  0  0  0  0  0  0  0  0  0  0
   -2.1643    1.6753   -0.1471 H   0  0  0  0  0  0  0  0  0  0  0  0
   -0.0531    1.7314    0.0342 C   0  0  0  0  0  0  0  0  0  0  0  0
    0.0481    2.8064    0.0434 H   0  0  0  0  0  0  0  0  0  0  0  0
    1.1159    1.0276    0.1352 N   0  0  0  0  0  0  0  0  0  0  0  0
    1.9967    1.4973    0.2616 H   0  0  0  0  0  0  0  0  0  0  0  0
    1.1753   -0.3538    0.1762 C   0  0  0  0  0  0  0  0  0  0  0  0
    2.2146   -0.9665    0.3352 O   0  0  0  0  0  0  0  0  0  0  0  0
    0.7245   -0.1700    3.5885 C   0  0  0  0  0  0  0  0  0  0  0  0
    1.7204   -0.5240    3.4742 H   0  0  0  0  0  0  0  0  0  0  0  0
   -0.4201    0.2165    3.6946 C   0  0  0  0  0  0  0  0  0  0  0  0
   -1.4249    0.5452    3.7950 H   0  0  0  0  0  0  0  0  0  0  0  0
  1  2  1  0  0  0  0
  1 11  1  0  0  0  0
  3  1  1  0  0  0  0
  4  3  2  0  0  0  0
  5  3  1  0  0  0  0
  5  7  2  0  0  0  0
  6  5  1  0  0  0  0
  7  8  1  0  0  0  0
  7  9  1  0  0  0  0
  9 11  1  0  0  0  0
  9 10  1  0  0  0  0
 11 12  2  0  0  0  0
 13 15  3  0  0  0  0
 14 13  1  0  0  0  0
 15 16  1  0  0  0  0
M  END
>  <SMILES>
[nH]1c(=O)cc[nH]c1=O.C#C

>  <MoleculeName>
UracilEthyne110

>  <Distance Scale>
1.1

>  <Energy Value>
-3.29

$$$$
/home/S66X8/2981_36NeopentaneNeopentane100.xyz
 OpenBabel06262409173D

 34 32  0  0  0  0  0  0  0  0999 V2000
    0.3825   -0.0706    0.7669 C   0  0  0  0  0  0  0  0  0  0  0  0
   -1.0406    0.3968    1.0609 C   0  0  0  0  0  0  0  0  0  0  0  0
   -1.7716   -0.2815    0.6183 H   0  0  0  0  0  0  0  0  0  0  0  0
   -1.2247    0.4357    2.1355 H   0  0  0  0  0  0  0  0  0  0  0  0
   -1.2141    1.3937    0.6531 H   0  0  0  0  0  0  0  0  0  0  0  0
    0.5908   -1.4668    1.3480 C   0  0  0  0  0  0  0  0  0  0  0  0
    1.6029   -1.8229    1.1501 H   0  0  0  0  0  0  0  0  0  0  0  0
    0.4390   -1.4667    2.4283 H   0  0  0  0  0  0  0  0  0  0  0  0
   -0.1099   -2.1787    0.9093 H   0  0  0  0  0  0  0  0  0  0  0  0
    1.3783    0.8984    1.3991 C   0  0  0  0  0  0  0  0  0  0  0  0
    2.4044    0.5854    1.2007 H   0  0  0  0  0  0  0  0  0  0  0  0
    1.2438    0.9460    2.4807 H   0  0  0  0  0  0  0  0  0  0  0  0
    1.2484    1.9050    0.9990 H   0  0  0  0  0  0  0  0  0  0  0  0
    0.6020   -0.1110   -0.7431 C   0  0  0  0  0  0  0  0  0  0  0  0
    0.4592    0.8770   -1.1829 H   0  0  0  0  0  0  0  0  0  0  0  0
    1.6137   -0.4435   -0.9797 H   0  0  0  0  0  0  0  0  0  0  0  0
   -0.0995   -0.7975   -1.2192 H   0  0  0  0  0  0  0  0  0  0  0  0
   -0.3818    0.0706    6.0133 C   0  0  0  0  0  0  0  0  0  0  0  0
    1.0410   -0.3984    5.7199 C   0  0  0  0  0  0  0  0  0  0  0  0
    1.2254   -0.4377    4.6454 H   0  0  0  0  0  0  0  0  0  0  0  0
    1.7724    0.2793    6.1626 H   0  0  0  0  0  0  0  0  0  0  0  0
    1.2132   -1.3954    6.1280 H   0  0  0  0  0  0  0  0  0  0  0  0
   -0.5882    1.4671    5.4325 C   0  0  0  0  0  0  0  0  0  0  0  0
   -1.6002    1.8241    5.6293 H   0  0  0  0  0  0  0  0  0  0  0  0
    0.1127    2.1782    5.8722 H   0  0  0  0  0  0  0  0  0  0  0  0
   -0.4351    1.4673    4.3523 H   0  0  0  0  0  0  0  0  0  0  0  0
   -0.6021    0.1107    7.5232 C   0  0  0  0  0  0  0  0  0  0  0  0
   -1.6134    0.4450    7.7592 H   0  0  0  0  0  0  0  0  0  0  0  0
    0.1004    0.7957    8.0000 H   0  0  0  0  0  0  0  0  0  0  0  0
   -0.4616   -0.8778    7.9626 H   0  0  0  0  0  0  0  0  0  0  0  0
   -1.3783   -0.8972    5.3802 C   0  0  0  0  0  0  0  0  0  0  0  0
   -1.2494   -1.9042    5.7797 H   0  0  0  0  0  0  0  0  0  0  0  0
   -2.4042   -0.5834    5.5785 H   0  0  0  0  0  0  0  0  0  0  0  0
   -1.2436   -0.9442    4.2986 H   0  0  0  0  0  0  0  0  0  0  0  0
  1  2  1  0  0  0  0
  1  6  1  0  0  0  0
  1 10  1  0  0  0  0
  2  4  1  0  0  0  0
  3  2  1  0  0  0  0
  5  2  1  0  0  0  0
  6  8  1  0  0  0  0
  7  6  1  0  0  0  0
  9  6  1  0  0  0  0
 10 12  1  0  0  0  0
 11 10  1  0  0  0  0
 13 10  1  0  0  0  0
 14  1  1  0  0  0  0
 15 14  1  0  0  0  0
 16 14  1  0  0  0  0
 17 14  1  0  0  0  0
 18 27  1  0  0  0  0
 19 18  1  0  0  0  0
 19 22  1  0  0  0  0
 19 21  1  0  0  0  0
 20 19  1  0  0  0  0
 23 24  1  0  0  0  0
 23 25  1  0  0  0  0
 23 18  1  0  0  0  0
 26 23  1  0  0  0  0
 27 28  1  0  0  0  0
 27 30  1  0  0  0  0
 27 29  1  0  0  0  0
 31 33  1  0  0  0  0
 31 32  1  0  0  0  0
 31 18  1  0  0  0  0
 34 31  1  0  0  0  0
M  END
>  <SMILES>
C(C)(C)(C)C.C(C)(C)(C)C

>  <MoleculeName>
NeopentaneNeopentane100

>  <Distance Scale>
1.0

>  <Energy Value>
-1.77

$$$$
/home/S66X8/3082_48PyridinePyridineTS200.xyz
 OpenBabel06262409173D

 22 22  0  0  0  0  0  0  0  0999 V2000
    1.3228   -0.0104    1.0192 N   0  0  0  0  0  0  0  0  0  0  0  0
    0.6513   -1.1490    0.7968 C   0  0  0  0  0  0  0  0  0  0  0  0
    1.2004   -2.0655    0.9737 H   0  0  0  0  0  0  0  0  0  0  0  0
   -0.6727   -1.1947    0.3667 C   0  0  0  0  0  0  0  0  0  0  0  0
   -1.1572   -2.1473    0.2065 H   0  0  0  0  0  0  0  0  0  0  0  0
   -1.3472    0.0031    0.1521 C   0  0  0  0  0  0  0  0  0  0  0  0
   -2.3754    0.0084   -0.1823 H   0  0  0  0  0  0  0  0  0  0  0  0
   -0.6646    1.1941    0.3790 C   0  0  0  0  0  0  0  0  0  0  0  0
   -1.1426    2.1516    0.2287 H   0  0  0  0  0  0  0  0  0  0  0  0
    0.6589    1.1350    0.8089 C   0  0  0  0  0  0  0  0  0  0  0  0
    1.2141    2.0459    0.9954 H   0  0  0  0  0  0  0  0  0  0  0  0
   -0.3239   -0.0140    9.4008 N   0  0  0  0  0  0  0  0  0  0  0  0
    0.5467   -0.0197    8.3814 C   0  0  0  0  0  0  0  0  0  0  0  0
    1.5946   -0.0184    8.6557 H   0  0  0  0  0  0  0  0  0  0  0  0
    0.1733   -0.0267    7.0396 C   0  0  0  0  0  0  0  0  0  0  0  0
    0.9208   -0.0309    6.2585 H   0  0  0  0  0  0  0  0  0  0  0  0
   -1.1827   -0.0281    6.7271 C   0  0  0  0  0  0  0  0  0  0  0  0
   -1.5124   -0.0336    5.6969 H   0  0  0  0  0  0  0  0  0  0  0  0
   -2.1008   -0.0224    7.7723 C   0  0  0  0  0  0  0  0  0  0  0  0
   -3.1653   -0.0233    7.5836 H   0  0  0  0  0  0  0  0  0  0  0  0
   -1.6252   -0.0155    9.0813 C   0  0  0  0  0  0  0  0  0  0  0  0
   -2.3174   -0.0109    9.9145 H   0  0  0  0  0  0  0  0  0  0  0  0
  2  3  1  0  0  0  0
  2  1  2  0  0  0  0
  4  2  1  0  0  0  0
  5  4  1  0  0  0  0
  6  4  2  0  0  0  0
  6  8  1  0  0  0  0
  7  6  1  0  0  0  0
  8 10  2  0  0  0  0
  9  8  1  0  0  0  0
 10 11  1  0  0  0  0
 10  1  1  0  0  0  0
 13 14  1  0  0  0  0
 13 12  2  0  0  0  0
 15 13  1  0  0  0  0
 16 15  1  0  0  0  0
 17 15  2  0  0  0  0
 17 19  1  0  0  0  0
 18 17  1  0  0  0  0
 19 21  2  0  0  0  0
 20 19  1  0  0  0  0
 21 12  1  0  0  0  0
 21 22  1  0  0  0  0
M  END
>  <SMILES>
n1ccccc1.n1ccccc1

>  <MoleculeName>
PyridinePyridineTS200

>  <Distance Scale>
2.0

>  <Energy Value>
-0.37

$$$$
/home/S66X8/2952_32UracilEthyne125.xyz
 OpenBabel06262409173D

 16 15  0  0  0  0  0  0  0  0999 V2000
   -0.0555   -0.9480    0.0100 N   0  0  0  0  0  0  0  0  0  0  0  0
   -0.0573   -1.9577    0.0551 H   0  0  0  0  0  0  0  0  0  0  0  0
   -1.3140   -0.3351   -0.0646 C   0  0  0  0  0  0  0  0  0  0  0  0
   -2.3289   -1.0079   -0.1231 O   0  0  0  0  0  0  0  0  0  0  0  0
   -1.2484    1.1161   -0.0665 C   0  0  0  0  0  0  0  0  0  0  0  0
   -2.1643    1.6753   -0.1471 H   0  0  0  0  0  0  0  0  0  0  0  0
   -0.0531    1.7314    0.0342 C   0  0  0  0  0  0  0  0  0  0  0  0
    0.0481    2.8064    0.0434 H   0  0  0  0  0  0  0  0  0  0  0  0
    1.1159    1.0276    0.1352 N   0  0  0  0  0  0  0  0  0  0  0  0
    1.9967    1.4973    0.2616 H   0  0  0  0  0  0  0  0  0  0  0  0
    1.1753   -0.3538    0.1762 C   0  0  0  0  0  0  0  0  0  0  0  0
    2.2146   -0.9665    0.3352 O   0  0  0  0  0  0  0  0  0  0  0  0
    0.7485   -0.1666    4.0372 C   0  0  0  0  0  0  0  0  0  0  0  0
    1.7444   -0.5206    3.9230 H   0  0  0  0  0  0  0  0  0  0  0  0
   -0.3961    0.2198    4.1434 C   0  0  0  0  0  0  0  0  0  0  0  0
   -1.4009    0.5485    4.2438 H   0  0  0  0  0  0  0  0  0  0  0  0
  1  2  1  0  0  0  0
  1 11  1  0  0  0  0
  3  1  1  0  0  0  0
  4  3  2  0  0  0  0
  5  3  1  0  0  0  0
  5  7  2  0  0  0  0
  6  5  1  0  0  0  0
  7  8  1  0  0  0  0
  7  9  1  0  0  0  0
  9 11  1  0  0  0  0
  9 10  1  0  0  0  0
 11 12  2  0  0  0  0
 13 15  3  0  0  0  0
 14 13  1  0  0  0  0
 15 16  1  0  0  0  0
M  END
>  <SMILES>
[nH]1c(=O)cc[nH]c1=O.C#C

>  <MoleculeName>
UracilEthyne125

>  <Distance Scale>
1.25

>  <Energy Value>
-2.23

$$$$
/home/S66X8/3072_47BenzeneBenzeneTS125.xyz
 OpenBabel06262409173D

 24 24  0  0  0  0  0  0  0  0999 V2000
    0.7292    1.1131    0.3267 C   0  0  0  0  0  0  0  0  0  0  0  0
    1.3032    2.0142    0.1592 H   0  0  0  0  0  0  0  0  0  0  0  0
    1.3751   -0.1194    0.4128 C   0  0  0  0  0  0  0  0  0  0  0  0
    2.4505   -0.1746    0.3133 H   0  0  0  0  0  0  0  0  0  0  0  0
    0.6350   -1.2806    0.6294 C   0  0  0  0  0  0  0  0  0  0  0  0
    1.1363   -2.2360    0.7002 H   0  0  0  0  0  0  0  0  0  0  0  0
   -0.7510   -1.2097    0.7579 C   0  0  0  0  0  0  0  0  0  0  0  0
   -1.3245   -2.1114    0.9242 H   0  0  0  0  0  0  0  0  0  0  0  0
   -1.3970    0.0227    0.6731 C   0  0  0  0  0  0  0  0  0  0  0  0
   -2.4724    0.0785    0.7740 H   0  0  0  0  0  0  0  0  0  0  0  0
   -0.6569    1.1843    0.4583 C   0  0  0  0  0  0  0  0  0  0  0  0
   -1.1578    2.1406    0.3951 H   0  0  0  0  0  0  0  0  0  0  0  0
    0.2428    0.2769    4.8106 C   0  0  0  0  0  0  0  0  0  0  0  0
    0.3649    0.5024    3.7602 H   0  0  0  0  0  0  0  0  0  0  0  0
   -0.8483   -0.4779    5.2380 C   0  0  0  0  0  0  0  0  0  0  0  0
   -1.5688   -0.8345    4.5143 H   0  0  0  0  0  0  0  0  0  0  0  0
   -1.0090   -0.7721    6.5909 C   0  0  0  0  0  0  0  0  0  0  0  0
   -1.8561   -1.3580    6.9212 H   0  0  0  0  0  0  0  0  0  0  0  0
   -0.0771   -0.3110    7.5194 C   0  0  0  0  0  0  0  0  0  0  0  0
   -0.2010   -0.5390    8.5694 H   0  0  0  0  0  0  0  0  0  0  0  0
    1.0145    0.4441    7.0942 C   0  0  0  0  0  0  0  0  0  0  0  0
    1.7376    0.8019    7.8146 H   0  0  0  0  0  0  0  0  0  0  0  0
    1.1733    0.7376    5.7407 C   0  0  0  0  0  0  0  0  0  0  0  0
    2.0205    1.3236    5.4106 H   0  0  0  0  0  0  0  0  0  0  0  0
  1  3  2  0  0  0  0
  1 11  1  0  0  0  0
  2  1  1  0  0  0  0
  3  5  1  0  0  0  0
  4  3  1  0  0  0  0
  5  6  1  0  0  0  0
  5  7  2  0  0  0  0
  7  8  1  0  0  0  0
  9  7  1  0  0  0  0
  9 10  1  0  0  0  0
 11  9  2  0  0  0  0
 12 11  1  0  0  0  0
 13 15  2  0  0  0  0
 13 23  1  0  0  0  0
 14 13  1  0  0  0  0
 15 17  1  0  0  0  0
 16 15  1  0  0  0  0
 17 18  1  0  0  0  0
 17 19  2  0  0  0  0
 19 20  1  0  0  0  0
 21 19  1  0  0  0  0
 21 22  1  0  0  0  0
 23 21  2  0  0  0  0
 24 23  1  0  0  0  0
M  END
>  <SMILES>
c1ccccc1.c1ccccc1

>  <MoleculeName>
BenzeneBenzeneTS125

>  <Distance Scale>
1.25

>  <Energy Value>
-1.77

$$$$
/home/S66X8/2858_20AcOHAcOH200.xyz
 OpenBabel06262409173D

 16 14  0  0  0  0  0  0  0  0999 V2000
   -1.0617    1.2971    0.2921 C   0  0  0  0  0  0  0  0  0  0  0  0
   -0.3582    2.2705    0.5318 O   0  0  0  0  0  0  0  0  0  0  0  0
   -0.5893    0.0949    0.0038 O   0  0  0  0  0  0  0  0  0  0  0  0
    0.4044    0.1277    0.0184 H   0  0  0  0  0  0  0  0  0  0  0  0
   -2.5584    1.3425    0.2963 C   0  0  0  0  0  0  0  0  0  0  0  0
   -2.8960    2.3475    0.5183 H   0  0  0  0  0  0  0  0  0  0  0  0
   -2.9329    1.0224   -0.6730 H   0  0  0  0  0  0  0  0  0  0  0  0
   -2.9372    0.6449    1.0396 H   0  0  0  0  0  0  0  0  0  0  0  0
    4.4912    1.1160    0.2842 C   0  0  0  0  0  0  0  0  0  0  0  0
    3.7876    0.1426    0.0444 O   0  0  0  0  0  0  0  0  0  0  0  0
    4.0187    2.3184    0.5720 O   0  0  0  0  0  0  0  0  0  0  0  0
    3.0250    2.2855    0.5576 H   0  0  0  0  0  0  0  0  0  0  0  0
    5.9879    1.0700    0.2822 C   0  0  0  0  0  0  0  0  0  0  0  0
    6.3255    0.0687    0.0447 H   0  0  0  0  0  0  0  0  0  0  0  0
    6.3694    1.7804   -0.4472 H   0  0  0  0  0  0  0  0  0  0  0  0
    6.3594    1.3727    1.2583 H   0  0  0  0  0  0  0  0  0  0  0  0
  1  5  1  0  0  0  0
  1  2  2  0  0  0  0
  3  4  1  0  0  0  0
  3  1  1  0  0  0  0
  5  6  1  0  0  0  0
  5  8  1  0  0  0  0
  7  5  1  0  0  0  0
  9 11  1  0  0  0  0
 10  9  2  0  0  0  0
 12 11  1  0  0  0  0
 13  9  1  0  0  0  0
 13 16  1  0  0  0  0
 14 13  1  0  0  0  0
 15 13  1  0  0  0  0
M  END
>  <SMILES>
C(=O)(O)C.C(=O)(O)C

>  <MoleculeName>
AcOHAcOH200

>  <Distance Scale>
2.0

>  <Energy Value>
-3.59

$$$$
/home/S66X8/3050_44EthenePentane200.xyz
 OpenBabel06262409173D

 23 21  0  0  0  0  0  0  0  0999 V2000
    0.6664    0.1838    0.4197 C   0  0  0  0  0  0  0  0  0  0  0  0
    1.2289   -0.3299    1.1863 H   0  0  0  0  0  0  0  0  0  0  0  0
    1.2280    0.6972   -0.3476 H   0  0  0  0  0  0  0  0  0  0  0  0
   -0.6660    0.1830    0.4196 C   0  0  0  0  0  0  0  0  0  0  0  0
   -1.2279   -0.3315    1.1861 H   0  0  0  0  0  0  0  0  0  0  0  0
   -1.2282    0.6956   -0.3477 H   0  0  0  0  0  0  0  0  0  0  0  0
   -2.5330   -0.5769    6.9643 C   0  0  0  0  0  0  0  0  0  0  0  0
   -2.5625   -1.1899    6.0632 H   0  0  0  0  0  0  0  0  0  0  0  0
   -2.5691   -1.2511    7.8200 H   0  0  0  0  0  0  0  0  0  0  0  0
   -3.4341    0.0341    6.9816 H   0  0  0  0  0  0  0  0  0  0  0  0
   -1.2715    0.2758    7.0002 C   0  0  0  0  0  0  0  0  0  0  0  0
   -1.2719    0.8958    7.8996 H   0  0  0  0  0  0  0  0  0  0  0  0
   -1.2631    0.9627    6.1511 H   0  0  0  0  0  0  0  0  0  0  0  0
   -0.0003   -0.5618    6.9732 C   0  0  0  0  0  0  0  0  0  0  0  0
   -0.0004   -1.2485    7.8251 H   0  0  0  0  0  0  0  0  0  0  0  0
   -0.0001   -1.1894    6.0766 H   0  0  0  0  0  0  0  0  0  0  0  0
    1.2710    0.2758    7.0006 C   0  0  0  0  0  0  0  0  0  0  0  0
    1.2712    0.8956    7.9001 H   0  0  0  0  0  0  0  0  0  0  0  0
    1.2628    0.9629    6.1517 H   0  0  0  0  0  0  0  0  0  0  0  0
    2.5324   -0.5769    6.9648 C   0  0  0  0  0  0  0  0  0  0  0  0
    2.5620   -1.1898    6.0635 H   0  0  0  0  0  0  0  0  0  0  0  0
    3.4336    0.0340    6.9824 H   0  0  0  0  0  0  0  0  0  0  0  0
    2.5683   -1.2514    7.8203 H   0  0  0  0  0  0  0  0  0  0  0  0
  1  2  1  0  0  0  0
  3  1  1  0  0  0  0
  4  1  2  0  0  0  0
  4  5  1  0  0  0  0
  6  4  1  0  0  0  0
  7 10  1  0  0  0  0
  7 11  1  0  0  0  0
  7  9  1  0  0  0  0
  8  7  1  0  0  0  0
 11 12  1  0  0  0  0
 13 11  1  0  0  0  0
 14 11  1  0  0  0  0
 14 17  1  0  0  0  0
 14 15  1  0  0  0  0
 16 14  1  0  0  0  0
 17 18  1  0  0  0  0
 19 17  1  0  0  0  0
 20 22  1  0  0  0  0
 20 17  1  0  0  0  0
 20 23  1  0  0  0  0
 21 20  1  0  0  0  0
M  END
>  <SMILES>
C=C.CCCCC

>  <MoleculeName>
EthenePentane200

>  <Distance Scale>
2.0

>  <Energy Value>
-0.12

$$$$
/home/S66X8/3031_42UracilCyclopentane110.xyz
 OpenBabel06262409173D

 27 27  0  0  0  0  0  0  0  0999 V2000
    0.1957   -0.8447    0.8238 N   0  0  0  0  0  0  0  0  0  0  0  0
    0.4504   -1.7968    1.0498 H   0  0  0  0  0  0  0  0  0  0  0  0
   -1.1790   -0.5737    0.7595 C   0  0  0  0  0  0  0  0  0  0  0  0
   -1.9936   -1.4563    0.9669 O   0  0  0  0  0  0  0  0  0  0  0  0
   -1.4767    0.8112    0.4376 C   0  0  0  0  0  0  0  0  0  0  0  0
   -2.5064    1.1157    0.3639 H   0  0  0  0  0  0  0  0  0  0  0  0
   -0.4681    1.6830    0.2349 C   0  0  0  0  0  0  0  0  0  0  0  0
   -0.6384    2.7216   -0.0062 H   0  0  0  0  0  0  0  0  0  0  0  0
    0.8456    1.3060    0.3268 N   0  0  0  0  0  0  0  0  0  0  0  0
    1.5897    1.9689    0.1860 H   0  0  0  0  0  0  0  0  0  0  0  0
    1.2543    0.0195    0.6362 C   0  0  0  0  0  0  0  0  0  0  0  0
    2.4223   -0.3017    0.7319 O   0  0  0  0  0  0  0  0  0  0  0  0
    1.0669   -0.8690    4.7282 C   0  0  0  0  0  0  0  0  0  0  0  0
    1.5207   -0.9611    3.7402 H   0  0  0  0  0  0  0  0  0  0  0  0
    1.6114   -1.5330    5.3974 H   0  0  0  0  0  0  0  0  0  0  0  0
    1.1212    0.5969    5.1611 C   0  0  0  0  0  0  0  0  0  0  0  0
    2.0795    1.0698    4.9504 H   0  0  0  0  0  0  0  0  0  0  0  0
    0.9331    0.6785    6.2343 H   0  0  0  0  0  0  0  0  0  0  0  0
   -0.0462    1.2097    4.3903 C   0  0  0  0  0  0  0  0  0  0  0  0
    0.2281    1.2985    3.3369 H   0  0  0  0  0  0  0  0  0  0  0  0
   -0.3306    2.2009    4.7420 H   0  0  0  0  0  0  0  0  0  0  0  0
   -1.1631    0.1722    4.5614 C   0  0  0  0  0  0  0  0  0  0  0  0
   -1.8886    0.1958    3.7500 H   0  0  0  0  0  0  0  0  0  0  0  0
   -1.7072    0.3768    5.4836 H   0  0  0  0  0  0  0  0  0  0  0  0
   -0.4401   -1.1944    4.6650 C   0  0  0  0  0  0  0  0  0  0  0  0
   -0.6827   -1.8386    3.8217 H   0  0  0  0  0  0  0  0  0  0  0  0
   -0.7552   -1.7218    5.5641 H   0  0  0  0  0  0  0  0  0  0  0  0
  1  2  1  0  0  0  0
  3  1  1  0  0  0  0
  3  4  2  0  0  0  0
  5  3  1  0  0  0  0
  6  5  1  0  0  0  0
  7  9  1  0  0  0  0
  7  5  2  0  0  0  0
  8  7  1  0  0  0  0
  9 11  1  0  0  0  0
 10  9  1  0  0  0  0
 11 12  2  0  0  0  0
 11  1  1  0  0  0  0
 13 16  1  0  0  0  0
 13 15  1  0  0  0  0
 14 13  1  0  0  0  0
 16 18  1  0  0  0  0
 17 16  1  0  0  0  0
 19 22  1  0  0  0  0
 19 21  1  0  0  0  0
 19 16  1  0  0  0  0
 20 19  1  0  0  0  0
 22 25  1  0  0  0  0
 22 24  1  0  0  0  0
 23 22  1  0  0  0  0
 25 13  1  0  0  0  0
 25 27  1  0  0  0  0
 26 25  1  0  0  0  0
M  END
>  <SMILES>
[nH]1c(=O)cc[nH]c1=O.C1CCCC1

>  <MoleculeName>
UracilCyclopentane110

>  <Distance Scale>
1.1

>  <Energy Value>
-3.54

$$$$
/home/S66X8/2959_33PyridineEthene110.xyz
 OpenBabel06262409173D

 17 16  0  0  0  0  0  0  0  0999 V2000
    1.3814   -0.0002    0.1315 N   0  0  0  0  0  0  0  0  0  0  0  0
    0.6794   -1.1402    0.0921 C   0  0  0  0  0  0  0  0  0  0  0  0
    1.2587   -2.0550    0.1259 H   0  0  0  0  0  0  0  0  0  0  0  0
   -0.7097   -1.1931    0.0067 C   0  0  0  0  0  0  0  0  0  0  0  0
   -1.2141   -2.1486   -0.0253 H   0  0  0  0  0  0  0  0  0  0  0  0
   -1.4216    0.0001   -0.0408 C   0  0  0  0  0  0  0  0  0  0  0  0
   -2.5007    0.0003   -0.1092 H   0  0  0  0  0  0  0  0  0  0  0  0
   -0.7094    1.1932    0.0065 C   0  0  0  0  0  0  0  0  0  0  0  0
   -1.2135    2.1487   -0.0255 H   0  0  0  0  0  0  0  0  0  0  0  0
    0.6797    1.1400    0.0919 C   0  0  0  0  0  0  0  0  0  0  0  0
    1.2593    2.0545    0.1255 H   0  0  0  0  0  0  0  0  0  0  0  0
    0.0220    0.6665    3.7578 C   0  0  0  0  0  0  0  0  0  0  0  0
    0.9325    1.2259    3.5987 H   0  0  0  0  0  0  0  0  0  0  0  0
   -0.8875    1.2289    3.9147 H   0  0  0  0  0  0  0  0  0  0  0  0
    0.0224   -0.6662    3.7579 C   0  0  0  0  0  0  0  0  0  0  0  0
    0.9331   -1.2253    3.5989 H   0  0  0  0  0  0  0  0  0  0  0  0
   -0.8869   -1.2291    3.9150 H   0  0  0  0  0  0  0  0  0  0  0  0
  2  3  1  0  0  0  0
  2  1  1  0  0  0  0
  4  2  2  0  0  0  0
  5  4  1  0  0  0  0
  6  8  2  0  0  0  0
  6  4  1  0  0  0  0
  7  6  1  0  0  0  0
  8 10  1  0  0  0  0
  9  8  1  0  0  0  0
 10 11  1  0  0  0  0
 10  1  2  0  0  0  0
 12 15  2  0  0  0  0
 12 14  1  0  0  0  0
 13 12  1  0  0  0  0
 15 17  1  0  0  0  0
 16 15  1  0  0  0  0
M  END
>  <SMILES>
n1ccccc1.C=C

>  <MoleculeName>
PyridineEthene110

>  <Distance Scale>
1.1

>  <Energy Value>
-1.67

$$$$
/home/S66X8/3170_59EthyneWaterCHO200.xyz
 OpenBabel06262409173D

  7  5  0  0  0  0  0  0  0  0999 V2000
   -1.0069   -0.0306   -0.0248 C   0  0  0  0  0  0  0  0  0  0  0  0
    0.0590   -0.0609   -0.0494 H   0  0  0  0  0  0  0  0  0  0  0  0
   -2.2187    0.0032    0.0026 C   0  0  0  0  0  0  0  0  0  0  0  0
   -3.2793    0.0335    0.0272 H   0  0  0  0  0  0  0  0  0  0  0  0
    4.5182   -0.2321   -0.1831 O   0  0  0  0  0  0  0  0  0  0  0  0
    5.0886   -0.8219    0.3140 H   0  0  0  0  0  0  0  0  0  0  0  0
    5.0902    0.1189   -0.8684 H   0  0  0  0  0  0  0  0  0  0  0  0
  1  3  3  0  0  0  0
  2  1  1  0  0  0  0
  3  4  1  0  0  0  0
  5  6  1  0  0  0  0
  7  5  1  0  0  0  0
M  END
>  <SMILES>
C#C.O

>  <MoleculeName>
EthyneWaterCHO200

>  <Distance Scale>
2.0

>  <Energy Value>
-0.46

$$$$
/home/S66X8/2811_15PeptidePeptide090.xyz
 OpenBabel06262409173D

 24 22  0  0  0  0  0  0  0  0999 V2000
   -0.7015   -0.2906    2.4069 C   0  0  0  0  0  0  0  0  0  0  0  0
   -1.1833    0.3956    3.0989 H   0  0  0  0  0  0  0  0  0  0  0  0
    0.3496   -0.0303    2.3078 H   0  0  0  0  0  0  0  0  0  0  0  0
   -0.7941   -1.2916    2.8240 H   0  0  0  0  0  0  0  0  0  0  0  0
   -1.4485   -0.2449    1.0918 C   0  0  0  0  0  0  0  0  0  0  0  0
   -2.6605   -0.4285    1.0343 O   0  0  0  0  0  0  0  0  0  0  0  0
   -0.6701    0.0059    0.0098 N   0  0  0  0  0  0  0  0  0  0  0  0
    0.3267    0.1226    0.1416 H   0  0  0  0  0  0  0  0  0  0  0  0
   -1.2271    0.0898   -1.3200 C   0  0  0  0  0  0  0  0  0  0  0  0
   -2.2920   -0.1065   -1.2409 H   0  0  0  0  0  0  0  0  0  0  0  0
   -1.0778    1.0799   -1.7485 H   0  0  0  0  0  0  0  0  0  0  0  0
   -0.7766   -0.6480   -1.9834 H   0  0  0  0  0  0  0  0  0  0  0  0
    1.8681   -2.3411    0.6728 C   0  0  0  0  0  0  0  0  0  0  0  0
    2.4263   -3.2511    0.4669 H   0  0  0  0  0  0  0  0  0  0  0  0
    0.9394   -2.3476    0.1085 H   0  0  0  0  0  0  0  0  0  0  0  0
    1.6088   -2.3176    1.7297 H   0  0  0  0  0  0  0  0  0  0  0  0
    2.6357   -1.0867    0.3366 C   0  0  0  0  0  0  0  0  0  0  0  0
    2.0905    0.0148    0.2796 O   0  0  0  0  0  0  0  0  0  0  0  0
    3.9624   -1.2555    0.1228 N   0  0  0  0  0  0  0  0  0  0  0  0
    4.3388   -2.1827    0.1996 H   0  0  0  0  0  0  0  0  0  0  0  0
    4.8497   -0.1490   -0.1661 C   0  0  0  0  0  0  0  0  0  0  0  0
    4.2355    0.7418   -0.2460 H   0  0  0  0  0  0  0  0  0  0  0  0
    5.5771   -0.0096    0.6313 H   0  0  0  0  0  0  0  0  0  0  0  0
    5.3747   -0.3090   -1.1053 H   0  0  0  0  0  0  0  0  0  0  0  0
  1  4  1  0  0  0  0
  1  2  1  0  0  0  0
  3  1  1  0  0  0  0
  5  1  1  0  0  0  0
  6  5  2  0  0  0  0
  7  8  1  0  0  0  0
  7  5  1  0  0  0  0
  9 10  1  0  0  0  0
  9  7  1  0  0  0  0
 11  9  1  0  0  0  0
 12  9  1  0  0  0  0
 13 16  1  0  0  0  0
 14 13  1  0  0  0  0
 15 13  1  0  0  0  0
 17 13  1  0  0  0  0
 18 17  2  0  0  0  0
 19 20  1  0  0  0  0
 19 17  1  0  0  0  0
 21 19  1  0  0  0  0
 21 23  1  0  0  0  0
 22 21  1  0  0  0  0
 24 21  1  0  0  0  0
M  END
>  <SMILES>
CC(=O)NC.CC(=O)NC

>  <MoleculeName>
PeptidePeptide090

>  <Distance Scale>
0.9

>  <Energy Value>
-8.02

$$$$
/home/S66X8/2823_16PeptideWater110.xyz
 OpenBabel06262409173D

 15 13  0  0  0  0  0  0  0  0999 V2000
   -0.7243   -0.7049    2.2839 C   0  0  0  0  0  0  0  0  0  0  0  0
    0.3353   -0.6299    2.0532 H   0  0  0  0  0  0  0  0  0  0  0  0
   -0.9517   -1.7120    2.6257 H   0  0  0  0  0  0  0  0  0  0  0  0
   -0.9696   -0.0221    3.0938 H   0  0  0  0  0  0  0  0  0  0  0  0
   -1.6149   -0.3874    1.1041 C   0  0  0  0  0  0  0  0  0  0  0  0
   -2.8373   -0.4150    1.1941 O   0  0  0  0  0  0  0  0  0  0  0  0
   -0.9534   -0.0764   -0.0408 N   0  0  0  0  0  0  0  0  0  0  0  0
    0.0538   -0.0756   -0.0366 H   0  0  0  0  0  0  0  0  0  0  0  0
   -1.6581    0.2501   -1.2586 C   0  0  0  0  0  0  0  0  0  0  0  0
   -2.7204    0.1769   -1.0467 H   0  0  0  0  0  0  0  0  0  0  0  0
   -1.4303    1.2630   -1.5881 H   0  0  0  0  0  0  0  0  0  0  0  0
   -1.4056   -0.4443   -2.0586 H   0  0  0  0  0  0  0  0  0  0  0  0
    2.3390   -0.0564   -0.1687 O   0  0  0  0  0  0  0  0  0  0  0  0
    2.9039   -0.7694   -0.4739 H   0  0  0  0  0  0  0  0  0  0  0  0
    2.9187    0.7078   -0.1448 H   0  0  0  0  0  0  0  0  0  0  0  0
  1  3  1  0  0  0  0
  1  4  1  0  0  0  0
  2  1  1  0  0  0  0
  5  6  2  0  0  0  0
  5  1  1  0  0  0  0
  7  8  1  0  0  0  0
  7  5  1  0  0  0  0
  9 10  1  0  0  0  0
  9  7  1  0  0  0  0
 11  9  1  0  0  0  0
 12  9  1  0  0  0  0
 13 15  1  0  0  0  0
 14 13  1  0  0  0  0
M  END
>  <SMILES>
CC(=O)NC.O

>  <MoleculeName>
PeptideWater110

>  <Distance Scale>
1.1

>  <Energy Value>
-4.74

$$$$
/home/S66X8/2700_01WaterWater095.xyz
 OpenBabel06262409173D

  6  4  0  0  0  0  0  0  0  0999 V2000
   -0.7022   -0.0561    0.0099 O   0  0  0  0  0  0  0  0  0  0  0  0
   -1.0222    0.8468   -0.0115 H   0  0  0  0  0  0  0  0  0  0  0  0
    0.2575    0.0421    0.0052 H   0  0  0  0  0  0  0  0  0  0  0  0
    2.1684    0.0271    0.0007 O   0  0  0  0  0  0  0  0  0  0  0  0
    2.5450   -0.4113    0.7669 H   0  0  0  0  0  0  0  0  0  0  0  0
    2.5407   -0.4491   -0.7447 H   0  0  0  0  0  0  0  0  0  0  0  0
  2  1  1  0  0  0  0
  3  1  1  0  0  0  0
  4  5  1  0  0  0  0
  6  4  1  0  0  0  0
M  END
>  <SMILES>
O.O

>  <MoleculeName>
WaterWater095

>  <Distance Scale>
0.95

>  <Energy Value>
-4.88

$$$$
/home/S66X8/2832_17UracilUracilBP125.xyz
 OpenBabel06262409173D

 24 24  0  0  0  0  0  0  0  0999 V2000
   -0.7300    0.0228    0.0009 N   0  0  0  0  0  0  0  0  0  0  0  0
    0.2984    0.0740    0.0016 H   0  0  0  0  0  0  0  0  0  0  0  0
   -1.2968   -1.2404    0.0015 C   0  0  0  0  0  0  0  0  0  0  0  0
   -0.5941   -2.2535    0.0026 O   0  0  0  0  0  0  0  0  0  0  0  0
   -2.7436   -1.2623    0.0005 C   0  0  0  0  0  0  0  0  0  0  0  0
   -3.2496   -2.2118    0.0008 H   0  0  0  0  0  0  0  0  0  0  0  0
   -3.4220   -0.0959   -0.0009 C   0  0  0  0  0  0  0  0  0  0  0  0
   -4.5009   -0.0492   -0.0017 H   0  0  0  0  0  0  0  0  0  0  0  0
   -2.7748    1.1054   -0.0014 N   0  0  0  0  0  0  0  0  0  0  0  0
   -3.2838    1.9739   -0.0025 H   0  0  0  0  0  0  0  0  0  0  0  0
   -1.3915    1.2370   -0.0005 C   0  0  0  0  0  0  0  0  0  0  0  0
   -0.8398    2.3170   -0.0010 O   0  0  0  0  0  0  0  0  0  0  0  0
    4.5961   -1.1093    0.0005 N   0  0  0  0  0  0  0  0  0  0  0  0
    5.0433   -0.2027    0.0009 H   0  0  0  0  0  0  0  0  0  0  0  0
    5.4521   -2.2239   -0.0010 C   0  0  0  0  0  0  0  0  0  0  0  0
    6.6616   -2.0722   -0.0017 O   0  0  0  0  0  0  0  0  0  0  0  0
    4.7379   -3.4861   -0.0015 C   0  0  0  0  0  0  0  0  0  0  0  0
    5.3045   -4.4011   -0.0026 H   0  0  0  0  0  0  0  0  0  0  0  0
    3.3878   -3.4899   -0.0005 C   0  0  0  0  0  0  0  0  0  0  0  0
    2.8108   -4.4028   -0.0009 H   0  0  0  0  0  0  0  0  0  0  0  0
    2.6498   -2.3390    0.0009 N   0  0  0  0  0  0  0  0  0  0  0  0
    1.6234   -2.3604    0.0016 H   0  0  0  0  0  0  0  0  0  0  0  0
    3.2225   -1.0943    0.0015 C   0  0  0  0  0  0  0  0  0  0  0  0
    2.5722   -0.0531    0.0027 O   0  0  0  0  0  0  0  0  0  0  0  0
  1  3  1  0  0  0  0
  1  2  1  0  0  0  0
  3  4  2  0  0  0  0
  5  6  1  0  0  0  0
  5  3  1  0  0  0  0
  7  5  2  0  0  0  0
  8  7  1  0  0  0  0
  9  7  1  0  0  0  0
  9 11  1  0  0  0  0
 10  9  1  0  0  0  0
 11  1  1  0  0  0  0
 12 11  2  0  0  0  0
 13 14  1  0  0  0  0
 13 23  1  0  0  0  0
 15 13  1  0  0  0  0
 16 15  2  0  0  0  0
 17 15  1  0  0  0  0
 17 19  2  0  0  0  0
 18 17  1  0  0  0  0
 19 21  1  0  0  0  0
 20 19  1  0  0  0  0
 21 23  1  0  0  0  0
 21 22  1  0  0  0  0
 23 24  2  0  0  0  0
M  END
>  <SMILES>
[nH]1c(=O)cc[nH]c1=O.[nH]1c(=O)cc[nH]c1=O

>  <MoleculeName>
UracilUracilBP125

>  <Distance Scale>
1.25

>  <Energy Value>
-13.15

$$$$
/home/S66X8/2702_01WaterWater105.xyz
 OpenBabel06262409173D

  6  4  0  0  0  0  0  0  0  0999 V2000
   -0.7022   -0.0561    0.0099 O   0  0  0  0  0  0  0  0  0  0  0  0
   -1.0222    0.8468   -0.0115 H   0  0  0  0  0  0  0  0  0  0  0  0
    0.2575    0.0421    0.0052 H   0  0  0  0  0  0  0  0  0  0  0  0
    2.3695    0.0256    0.0003 O   0  0  0  0  0  0  0  0  0  0  0  0
    2.7462   -0.4128    0.7664 H   0  0  0  0  0  0  0  0  0  0  0  0
    2.7418   -0.4507   -0.7451 H   0  0  0  0  0  0  0  0  0  0  0  0
  2  1  1  0  0  0  0
  3  1  1  0  0  0  0
  4  5  1  0  0  0  0
  6  4  1  0  0  0  0
M  END
>  <SMILES>
O.O

>  <MoleculeName>
WaterWater105

>  <Distance Scale>
1.05

>  <Energy Value>
-4.72

$$$$
/home/S66X8/2939_31UracilEthene090.xyz
 OpenBabel06262409173D

 18 17  0  0  0  0  0  0  0  0999 V2000
   -0.0509   -0.9801    0.0340 N   0  0  0  0  0  0  0  0  0  0  0  0
   -0.0532   -1.9907    0.0498 H   0  0  0  0  0  0  0  0  0  0  0  0
   -1.3088   -0.3619    0.0040 C   0  0  0  0  0  0  0  0  0  0  0  0
   -2.3272   -1.0326   -0.0058 O   0  0  0  0  0  0  0  0  0  0  0  0
   -1.2368    1.0880   -0.0122 C   0  0  0  0  0  0  0  0  0  0  0  0
   -2.1527    1.6515   -0.0548 H   0  0  0  0  0  0  0  0  0  0  0  0
   -0.0352    1.6978    0.0337 C   0  0  0  0  0  0  0  0  0  0  0  0
    0.0704    2.7725    0.0319 H   0  0  0  0  0  0  0  0  0  0  0  0
    1.1345    0.9903    0.0918 N   0  0  0  0  0  0  0  0  0  0  0  0
    2.0237    1.4568    0.1557 H   0  0  0  0  0  0  0  0  0  0  0  0
    1.1932   -0.3918    0.1158 C   0  0  0  0  0  0  0  0  0  0  0  0
    2.2364   -1.0112    0.1942 O   0  0  0  0  0  0  0  0  0  0  0  0
    0.7184    0.0154    3.1140 C   0  0  0  0  0  0  0  0  0  0  0  0
    1.2355   -0.8556    2.7368 H   0  0  0  0  0  0  0  0  0  0  0  0
    1.3240    0.8024    3.5413 H   0  0  0  0  0  0  0  0  0  0  0  0
   -0.6104    0.1160    3.0648 C   0  0  0  0  0  0  0  0  0  0  0  0
   -1.2224   -0.6715    2.6479 H   0  0  0  0  0  0  0  0  0  0  0  0
   -1.1222    0.9870    3.4488 H   0  0  0  0  0  0  0  0  0  0  0  0
  1  2  1  0  0  0  0
  1 11  1  0  0  0  0
  3  1  1  0  0  0  0
  4  3  2  0  0  0  0
  5  3  1  0  0  0  0
  5  7  2  0  0  0  0
  6  5  1  0  0  0  0
  7  9  1  0  0  0  0
  8  7  1  0  0  0  0
  9 11  1  0  0  0  0
  9 10  1  0  0  0  0
 11 12  2  0  0  0  0
 13 15  1  0  0  0  0
 14 13  1  0  0  0  0
 16 13  2  0  0  0  0
 16 18  1  0  0  0  0
 17 16  1  0  0  0  0
M  END
>  <SMILES>
[nH]1c(=O)cc[nH]c1=O.C=C

>  <MoleculeName>
UracilEthene090

>  <Distance Scale>
0.9

>  <Energy Value>
-2.57

$$$$
/home/S66X8/2919_28BenzeneUracilpipi110.xyz
 OpenBabel06262409173D

 24 24  0  0  0  0  0  0  0  0999 V2000
    0.8258    1.2365   -0.0403 C   0  0  0  0  0  0  0  0  0  0  0  0
    1.5210    2.0631   -0.0825 H   0  0  0  0  0  0  0  0  0  0  0  0
    1.3002   -0.0629    0.1273 C   0  0  0  0  0  0  0  0  0  0  0  0
    2.3637   -0.2423    0.2077 H   0  0  0  0  0  0  0  0  0  0  0  0
    0.4035   -1.1286    0.1982 C   0  0  0  0  0  0  0  0  0  0  0  0
    0.7738   -2.1374    0.3241 H   0  0  0  0  0  0  0  0  0  0  0  0
   -0.9678   -0.8952    0.1031 C   0  0  0  0  0  0  0  0  0  0  0  0
   -1.6652   -1.7200    0.1604 H   0  0  0  0  0  0  0  0  0  0  0  0
   -1.4435    0.4045   -0.0624 C   0  0  0  0  0  0  0  0  0  0  0  0
   -2.5075    0.5855   -0.1242 H   0  0  0  0  0  0  0  0  0  0  0  0
   -0.5458    1.4688   -0.1362 C   0  0  0  0  0  0  0  0  0  0  0  0
   -0.9142    2.4774   -0.2679 H   0  0  0  0  0  0  0  0  0  0  0  0
   -0.2641    0.6413    3.5030 N   0  0  0  0  0  0  0  0  0  0  0  0
   -0.6374    1.5431    3.2401 H   0  0  0  0  0  0  0  0  0  0  0  0
    1.1280    0.5683    3.6351 C   0  0  0  0  0  0  0  0  0  0  0  0
    1.8189    1.5627    3.4902 O   0  0  0  0  0  0  0  0  0  0  0  0
    1.6069   -0.7658    3.9532 C   0  0  0  0  0  0  0  0  0  0  0  0
    2.6640   -0.9180    4.0873 H   0  0  0  0  0  0  0  0  0  0  0  0
    0.7272   -1.7801    4.0794 C   0  0  0  0  0  0  0  0  0  0  0  0
    1.0332   -2.7886    4.3159 H   0  0  0  0  0  0  0  0  0  0  0  0
   -0.6180   -1.5951    3.9093 N   0  0  0  0  0  0  0  0  0  0  0  0
   -1.2668   -2.3577    4.0082 H   0  0  0  0  0  0  0  0  0  0  0  0
   -1.1925   -0.3703    3.6099 C   0  0  0  0  0  0  0  0  0  0  0  0
   -2.3903   -0.2195    3.4678 O   0  0  0  0  0  0  0  0  0  0  0  0
  1  3  1  0  0  0  0
  2  1  1  0  0  0  0
  3  5  2  0  0  0  0
  3  4  1  0  0  0  0
  5  6  1  0  0  0  0
  7  8  1  0  0  0  0
  7  5  1  0  0  0  0
  9  7  2  0  0  0  0
 10  9  1  0  0  0  0
 11  9  1  0  0  0  0
 11  1  2  0  0  0  0
 12 11  1  0  0  0  0
 13 23  1  0  0  0  0
 13 15  1  0  0  0  0
 14 13  1  0  0  0  0
 15 17  1  0  0  0  0
 16 15  2  0  0  0  0
 17 19  2  0  0  0  0
 17 18  1  0  0  0  0
 19 20  1  0  0  0  0
 21 22  1  0  0  0  0
 21 19  1  0  0  0  0
 23 21  1  0  0  0  0
 24 23  2  0  0  0  0
M  END
>  <SMILES>
c1ccccc1.[nH]1c(=O)cc[nH]c1=O

>  <MoleculeName>
BenzeneUracilpipi110

>  <Distance Scale>
1.1

>  <Energy Value>
-5.08

$$$$
/home/S66X8/2936_30BenzeneEthene125.xyz
 OpenBabel06262409173D

 18 17  0  0  0  0  0  0  0  0999 V2000
    0.8355    1.1152    0.0214 C   0  0  0  0  0  0  0  0  0  0  0  0
    1.4843    1.9806    0.0195 H   0  0  0  0  0  0  0  0  0  0  0  0
    1.3833   -0.1661    0.0238 C   0  0  0  0  0  0  0  0  0  0  0  0
    2.4571   -0.2952    0.0228 H   0  0  0  0  0  0  0  0  0  0  0  0
    0.5476   -1.2813    0.0217 C   0  0  0  0  0  0  0  0  0  0  0  0
    0.9729   -2.2758    0.0198 H   0  0  0  0  0  0  0  0  0  0  0  0
   -0.8355   -1.1152    0.0214 C   0  0  0  0  0  0  0  0  0  0  0  0
   -1.4843   -1.9806    0.0195 H   0  0  0  0  0  0  0  0  0  0  0  0
   -1.3833    0.1662    0.0238 C   0  0  0  0  0  0  0  0  0  0  0  0
   -2.4572    0.2952    0.0228 H   0  0  0  0  0  0  0  0  0  0  0  0
   -0.5476    1.2813    0.0217 C   0  0  0  0  0  0  0  0  0  0  0  0
   -0.9729    2.2758    0.0198 H   0  0  0  0  0  0  0  0  0  0  0  0
    0.6558   -0.1168    4.3347 C   0  0  0  0  0  0  0  0  0  0  0  0
    1.0472   -1.1239    4.3303 H   0  0  0  0  0  0  0  0  0  0  0  0
    1.3709    0.6933    4.3302 H   0  0  0  0  0  0  0  0  0  0  0  0
   -0.6558    0.1168    4.3348 C   0  0  0  0  0  0  0  0  0  0  0  0
   -1.3708   -0.6933    4.3303 H   0  0  0  0  0  0  0  0  0  0  0  0
   -1.0472    1.1239    4.3303 H   0  0  0  0  0  0  0  0  0  0  0  0
  1 11  2  0  0  0  0
  1  3  1  0  0  0  0
  2  1  1  0  0  0  0
  4  3  1  0  0  0  0
  5  3  2  0  0  0  0
  6  5  1  0  0  0  0
  7  5  1  0  0  0  0
  7  9  2  0  0  0  0
  8  7  1  0  0  0  0
 10  9  1  0  0  0  0
 11  9  1  0  0  0  0
 12 11  1  0  0  0  0
 13 16  2  0  0  0  0
 14 13  1  0  0  0  0
 15 13  1  0  0  0  0
 17 16  1  0  0  0  0
 18 16  1  0  0  0  0
M  END
>  <SMILES>
c1ccccc1.C=C

>  <MoleculeName>
BenzeneEthene125

>  <Distance Scale>
1.25

>  <Energy Value>
-0.69

$$$$
/home/S66X8/2801_13PeptideMeOH150.xyz
 OpenBabel06262409173D

 18 16  0  0  0  0  0  0  0  0999 V2000
   -0.8493   -0.3395    2.4917 C   0  0  0  0  0  0  0  0  0  0  0  0
    0.1843   -0.0110    2.4162 H   0  0  0  0  0  0  0  0  0  0  0  0
   -0.8825   -1.3421    2.9127 H   0  0  0  0  0  0  0  0  0  0  0  0
   -1.3908    0.3169    3.1684 H   0  0  0  0  0  0  0  0  0  0  0  0
   -1.5640   -0.3533    1.1595 C   0  0  0  0  0  0  0  0  0  0  0  0
   -2.7495   -0.6515    1.0568 O   0  0  0  0  0  0  0  0  0  0  0  0
   -0.8017   -0.0274    0.0883 N   0  0  0  0  0  0  0  0  0  0  0  0
    0.1612    0.2404    0.2187 H   0  0  0  0  0  0  0  0  0  0  0  0
   -1.3853   -0.0024   -1.2341 C   0  0  0  0  0  0  0  0  0  0  0  0
   -1.8916   -0.9428   -1.4401 H   0  0  0  0  0  0  0  0  0  0  0  0
   -2.1200    0.7962   -1.3309 H   0  0  0  0  0  0  0  0  0  0  0  0
   -0.5946    0.1496   -1.9631 H   0  0  0  0  0  0  0  0  0  0  0  0
    3.1623    0.2581    0.5757 O   0  0  0  0  0  0  0  0  0  0  0  0
    3.8831    0.8854    0.6661 H   0  0  0  0  0  0  0  0  0  0  0  0
    3.6814   -1.0473    0.8095 C   0  0  0  0  0  0  0  0  0  0  0  0
    2.8488   -1.7361    0.7040 H   0  0  0  0  0  0  0  0  0  0  0  0
    4.4475   -1.3163    0.0827 H   0  0  0  0  0  0  0  0  0  0  0  0
    4.0895   -1.1487    1.8152 H   0  0  0  0  0  0  0  0  0  0  0  0
  1  3  1  0  0  0  0
  1  4  1  0  0  0  0
  2  1  1  0  0  0  0
  5  1  1  0  0  0  0
  6  5  2  0  0  0  0
  7  8  1  0  0  0  0
  7  5  1  0  0  0  0
  9  7  1  0  0  0  0
 10  9  1  0  0  0  0
 11  9  1  0  0  0  0
 12  9  1  0  0  0  0
 13 14  1  0  0  0  0
 13 15  1  0  0  0  0
 15 18  1  0  0  0  0
 16 15  1  0  0  0  0
 17 15  1  0  0  0  0
M  END
>  <SMILES>
CC(=O)NC.OC

>  <MoleculeName>
PeptideMeOH150

>  <Distance Scale>
1.5

>  <Energy Value>
-2.95

$$$$
/home/S66X8/3079_48PyridinePyridineTS110.xyz
 OpenBabel06262409173D

 22 22  0  0  0  0  0  0  0  0999 V2000
    1.3228   -0.0104    1.0192 N   0  0  0  0  0  0  0  0  0  0  0  0
    0.6513   -1.1490    0.7968 C   0  0  0  0  0  0  0  0  0  0  0  0
    1.2004   -2.0655    0.9737 H   0  0  0  0  0  0  0  0  0  0  0  0
   -0.6727   -1.1947    0.3667 C   0  0  0  0  0  0  0  0  0  0  0  0
   -1.1572   -2.1473    0.2065 H   0  0  0  0  0  0  0  0  0  0  0  0
   -1.3472    0.0031    0.1521 C   0  0  0  0  0  0  0  0  0  0  0  0
   -2.3754    0.0084   -0.1823 H   0  0  0  0  0  0  0  0  0  0  0  0
   -0.6646    1.1941    0.3790 C   0  0  0  0  0  0  0  0  0  0  0  0
   -1.1426    2.1516    0.2287 H   0  0  0  0  0  0  0  0  0  0  0  0
    0.6589    1.1350    0.8089 C   0  0  0  0  0  0  0  0  0  0  0  0
    1.2141    2.0459    0.9954 H   0  0  0  0  0  0  0  0  0  0  0  0
    0.3746   -0.0002    7.0364 N   0  0  0  0  0  0  0  0  0  0  0  0
    1.2453   -0.0058    6.0170 C   0  0  0  0  0  0  0  0  0  0  0  0
    2.2932   -0.0046    6.2913 H   0  0  0  0  0  0  0  0  0  0  0  0
    0.8719   -0.0129    4.6751 C   0  0  0  0  0  0  0  0  0  0  0  0
    1.6194   -0.0170    3.8940 H   0  0  0  0  0  0  0  0  0  0  0  0
   -0.4841   -0.0143    4.3627 C   0  0  0  0  0  0  0  0  0  0  0  0
   -0.8138   -0.0197    3.3324 H   0  0  0  0  0  0  0  0  0  0  0  0
   -1.4022   -0.0086    5.4079 C   0  0  0  0  0  0  0  0  0  0  0  0
   -2.4667   -0.0094    5.2192 H   0  0  0  0  0  0  0  0  0  0  0  0
   -0.9266   -0.0017    6.7169 C   0  0  0  0  0  0  0  0  0  0  0  0
   -1.6188    0.0029    7.5501 H   0  0  0  0  0  0  0  0  0  0  0  0
  2  3  1  0  0  0  0
  2  1  2  0  0  0  0
  4  2  1  0  0  0  0
  5  4  1  0  0  0  0
  6  4  2  0  0  0  0
  6  8  1  0  0  0  0
  7  6  1  0  0  0  0
  8 10  2  0  0  0  0
  9  8  1  0  0  0  0
 10 11  1  0  0  0  0
 10  1  1  0  0  0  0
 13 14  1  0  0  0  0
 13 12  2  0  0  0  0
 15 13  1  0  0  0  0
 16 15  1  0  0  0  0
 17 15  2  0  0  0  0
 17 19  1  0  0  0  0
 18 17  1  0  0  0  0
 19 21  2  0  0  0  0
 20 19  1  0  0  0  0
 21 12  1  0  0  0  0
 21 22  1  0  0  0  0
M  END
>  <SMILES>
n1ccccc1.n1ccccc1

>  <MoleculeName>
PyridinePyridineTS110

>  <Distance Scale>
1.1

>  <Energy Value>
-3.22

$$$$
/home/S66X8/2888_24BenzeneBenzenepipi125.xyz
 OpenBabel06262409173D

 24 24  0  0  0  0  0  0  0  0999 V2000
    0.7126    1.1210    0.0605 C   0  0  0  0  0  0  0  0  0  0  0  0
    1.3578    1.9864    0.1277 H   0  0  0  0  0  0  0  0  0  0  0  0
    1.2582   -0.1593    0.1242 C   0  0  0  0  0  0  0  0  0  0  0  0
    2.3250   -0.2871    0.2467 H   0  0  0  0  0  0  0  0  0  0  0  0
    0.4269   -1.2745    0.0427 C   0  0  0  0  0  0  0  0  0  0  0  0
    0.8504   -2.2684    0.0947 H   0  0  0  0  0  0  0  0  0  0  0  0
   -0.9496   -1.1101   -0.1003 C   0  0  0  0  0  0  0  0  0  0  0  0
   -1.5945   -1.9763   -0.1637 H   0  0  0  0  0  0  0  0  0  0  0  0
   -1.4955    0.1711   -0.1615 C   0  0  0  0  0  0  0  0  0  0  0  0
   -2.5638    0.2992   -0.2737 H   0  0  0  0  0  0  0  0  0  0  0  0
   -0.6638    1.2866   -0.0834 C   0  0  0  0  0  0  0  0  0  0  0  0
   -1.0869    2.2810   -0.1329 H   0  0  0  0  0  0  0  0  0  0  0  0
    2.2537    1.1073    4.4711 C   0  0  0  0  0  0  0  0  0  0  0  0
    2.8985    1.9734    4.5348 H   0  0  0  0  0  0  0  0  0  0  0  0
    2.7997   -0.1739    4.5326 C   0  0  0  0  0  0  0  0  0  0  0  0
    3.8679   -0.3020    4.6454 H   0  0  0  0  0  0  0  0  0  0  0  0
    1.9680   -1.2895    4.4540 C   0  0  0  0  0  0  0  0  0  0  0  0
    2.3911   -2.2838    4.5036 H   0  0  0  0  0  0  0  0  0  0  0  0
    0.5916   -1.1239    4.3092 C   0  0  0  0  0  0  0  0  0  0  0  0
   -0.0535   -1.9893    4.2416 H   0  0  0  0  0  0  0  0  0  0  0  0
    0.0460    0.1564    4.2453 C   0  0  0  0  0  0  0  0  0  0  0  0
   -1.0206    0.2842    4.1221 H   0  0  0  0  0  0  0  0  0  0  0  0
    0.8773    1.2717    4.3274 C   0  0  0  0  0  0  0  0  0  0  0  0
    0.4538    2.2656    4.2750 H   0  0  0  0  0  0  0  0  0  0  0  0
  1  3  1  0  0  0  0
  1  2  1  0  0  0  0
  3  4  1  0  0  0  0
  5  6  1  0  0  0  0
  5  3  2  0  0  0  0
  7  5  1  0  0  0  0
  8  7  1  0  0  0  0
  9  7  2  0  0  0  0
  9 11  1  0  0  0  0
 10  9  1  0  0  0  0
 11  1  2  0  0  0  0
 12 11  1  0  0  0  0
 13 15  1  0  0  0  0
 13 14  1  0  0  0  0
 15 16  1  0  0  0  0
 17 18  1  0  0  0  0
 17 15  2  0  0  0  0
 19 17  1  0  0  0  0
 20 19  1  0  0  0  0
 21 19  2  0  0  0  0
 21 23  1  0  0  0  0
 22 21  1  0  0  0  0
 23 13  2  0  0  0  0
 24 23  1  0  0  0  0
M  END
>  <SMILES>
c1ccccc1.c1ccccc1

>  <MoleculeName>
BenzeneBenzenepipi125

>  <Distance Scale>
1.25

>  <Energy Value>
-1.54

$$$$
/home/S66X8/3098_50BenzeneEthyneCHpi200.xyz
 OpenBabel06262409173D

 16 15  0  0  0  0  0  0  0  0999 V2000
    0.8366    1.1149    0.2310 C   0  0  0  0  0  0  0  0  0  0  0  0
    1.4855    1.9797    0.2147 H   0  0  0  0  0  0  0  0  0  0  0  0
    1.3842   -0.1670    0.2601 C   0  0  0  0  0  0  0  0  0  0  0  0
    2.4577   -0.2963    0.2661 H   0  0  0  0  0  0  0  0  0  0  0  0
    0.5475   -1.2818    0.2869 C   0  0  0  0  0  0  0  0  0  0  0  0
    0.9719   -2.2760    0.3139 H   0  0  0  0  0  0  0  0  0  0  0  0
   -0.8367   -1.1150    0.2846 C   0  0  0  0  0  0  0  0  0  0  0  0
   -1.4856   -1.9796    0.3097 H   0  0  0  0  0  0  0  0  0  0  0  0
   -1.3842    0.1669    0.2556 C   0  0  0  0  0  0  0  0  0  0  0  0
   -2.4576    0.2965    0.2585 H   0  0  0  0  0  0  0  0  0  0  0  0
   -0.5475    1.2817    0.2290 C   0  0  0  0  0  0  0  0  0  0  0  0
   -0.9721    2.2760    0.2112 H   0  0  0  0  0  0  0  0  0  0  0  0
    0.0093    0.1450    6.7567 C   0  0  0  0  0  0  0  0  0  0  0  0
    0.0063    0.1274    5.6926 H   0  0  0  0  0  0  0  0  0  0  0  0
    0.0130    0.1646    7.9691 C   0  0  0  0  0  0  0  0  0  0  0  0
    0.0161    0.1818    9.0303 H   0  0  0  0  0  0  0  0  0  0  0  0
  1  3  1  0  0  0  0
  2  1  1  0  0  0  0
  3  4  1  0  0  0  0
  3  5  2  0  0  0  0
  5  6  1  0  0  0  0
  7  5  1  0  0  0  0
  7  8  1  0  0  0  0
  9 10  1  0  0  0  0
  9  7  2  0  0  0  0
 11  1  2  0  0  0  0
 11  9  1  0  0  0  0
 12 11  1  0  0  0  0
 13 15  3  0  0  0  0
 14 13  1  0  0  0  0
 15 16  1  0  0  0  0
M  END
>  <SMILES>
c1ccccc1.C#C

>  <MoleculeName>
BenzeneEthyneCHpi200

>  <Distance Scale>
2.0

>  <Energy Value>
-0.27

$$$$
/home/S66X8/3026_41UracilPentane200.xyz
 OpenBabel06262409173D

 29 28  0  0  0  0  0  0  0  0999 V2000
   -0.2089   -0.9646    0.5348 N   0  0  0  0  0  0  0  0  0  0  0  0
   -0.2242   -1.9731    0.6051 H   0  0  0  0  0  0  0  0  0  0  0  0
   -1.4463   -0.3446    0.3067 C   0  0  0  0  0  0  0  0  0  0  0  0
   -2.4612   -1.0108    0.1979 O   0  0  0  0  0  0  0  0  0  0  0  0
   -1.3578    1.1032    0.2281 C   0  0  0  0  0  0  0  0  0  0  0  0
   -2.2566    1.6677    0.0498 H   0  0  0  0  0  0  0  0  0  0  0  0
   -0.1630    1.7099    0.3811 C   0  0  0  0  0  0  0  0  0  0  0  0
   -0.0463    2.7824    0.3333 H   0  0  0  0  0  0  0  0  0  0  0  0
    0.9855    1.0008    0.6112 N   0  0  0  0  0  0  0  0  0  0  0  0
    1.8676    1.4669    0.7448 H   0  0  0  0  0  0  0  0  0  0  0  0
    1.0270   -0.3792    0.7126 C   0  0  0  0  0  0  0  0  0  0  0  0
    2.0492   -0.9974    0.9373 O   0  0  0  0  0  0  0  0  0  0  0  0
    1.4111    2.3920    7.2654 C   0  0  0  0  0  0  0  0  0  0  0  0
    0.9802    2.7031    6.3126 H   0  0  0  0  0  0  0  0  0  0  0  0
    0.7769    2.7975    8.0536 H   0  0  0  0  0  0  0  0  0  0  0  0
    2.3940    2.8525    7.3585 H   0  0  0  0  0  0  0  0  0  0  0  0
    1.4841    0.8732    7.3549 C   0  0  0  0  0  0  0  0  0  0  0  0
    1.9145    0.5836    8.3162 H   0  0  0  0  0  0  0  0  0  0  0  0
    2.1587    0.4820    6.5898 H   0  0  0  0  0  0  0  0  0  0  0  0
    0.1193    0.2150    7.2001 C   0  0  0  0  0  0  0  0  0  0  0  0
   -0.5519    0.5839    7.9817 H   0  0  0  0  0  0  0  0  0  0  0  0
   -0.3281    0.5253    6.2502 H   0  0  0  0  0  0  0  0  0  0  0  0
    0.1756   -1.3057    7.2597 C   0  0  0  0  0  0  0  0  0  0  0  0
    0.5992   -1.6081    8.2203 H   0  0  0  0  0  0  0  0  0  0  0  0
    0.8671   -1.6676    6.4952 H   0  0  0  0  0  0  0  0  0  0  0  0
   -1.1937   -1.9476    7.0759 C   0  0  0  0  0  0  0  0  0  0  0  0
   -1.6321   -1.6741    6.1157 H   0  0  0  0  0  0  0  0  0  0  0  0
   -1.1367   -3.0343    7.1200 H   0  0  0  0  0  0  0  0  0  0  0  0
   -1.8816   -1.6192    7.8552 H   0  0  0  0  0  0  0  0  0  0  0  0
  1  2  1  0  0  0  0
  1 11  1  0  0  0  0
  3  1  1  0  0  0  0
  4  3  2  0  0  0  0
  5  3  1  0  0  0  0
  5  7  2  0  0  0  0
  6  5  1  0  0  0  0
  7  9  1  0  0  0  0
  8  7  1  0  0  0  0
  9 11  1  0  0  0  0
  9 10  1  0  0  0  0
 11 12  2  0  0  0  0
 13 17  1  0  0  0  0
 13 16  1  0  0  0  0
 13 15  1  0  0  0  0
 14 13  1  0  0  0  0
 17 18  1  0  0  0  0
 19 17  1  0  0  0  0
 20 23  1  0  0  0  0
 20 17  1  0  0  0  0
 20 21  1  0  0  0  0
 22 20  1  0  0  0  0
 23 24  1  0  0  0  0
 25 23  1  0  0  0  0
 26 28  1  0  0  0  0
 26 23  1  0  0  0  0
 26 29  1  0  0  0  0
 27 26  1  0  0  0  0
M  END
>  <SMILES>
[nH]1c(=O)cc[nH]c1=O.CCCCC

>  <MoleculeName>
UracilPentane200

>  <Distance Scale>
2.0

>  <Energy Value>
-0.21

$$$$
/home/S66X8/3127_54BenzeneWaterOHpi110.xyz
 OpenBabel06262409173D

 15 14  0  0  0  0  0  0  0  0999 V2000
    0.7801   -0.6099   -1.2076 C   0  0  0  0  0  0  0  0  0  0  0  0
    0.8962   -1.1376   -2.1441 H   0  0  0  0  0  0  0  0  0  0  0  0
    0.4779    0.7510   -1.2079 C   0  0  0  0  0  0  0  0  0  0  0  0
    0.3570    1.2782   -2.1441 H   0  0  0  0  0  0  0  0  0  0  0  0
    0.3273    1.4319   -0.0000 C   0  0  0  0  0  0  0  0  0  0  0  0
    0.0915    2.4871    0.0000 H   0  0  0  0  0  0  0  0  0  0  0  0
    0.4779    0.7510    1.2079 C   0  0  0  0  0  0  0  0  0  0  0  0
    0.3570    1.2782    2.1441 H   0  0  0  0  0  0  0  0  0  0  0  0
    0.7801   -0.6099    1.2076 C   0  0  0  0  0  0  0  0  0  0  0  0
    0.8962   -1.1376    2.1441 H   0  0  0  0  0  0  0  0  0  0  0  0
    0.9316   -1.2900    0.0000 C   0  0  0  0  0  0  0  0  0  0  0  0
    1.1685   -2.3452   -0.0000 H   0  0  0  0  0  0  0  0  0  0  0  0
   -3.0675   -0.3056   -0.0000 O   0  0  0  0  0  0  0  0  0  0  0  0
   -2.9027   -1.2503   -0.0000 H   0  0  0  0  0  0  0  0  0  0  0  0
   -2.1802    0.0660   -0.0000 H   0  0  0  0  0  0  0  0  0  0  0  0
  1 11  1  0  0  0  0
  2  1  1  0  0  0  0
  3  1  2  0  0  0  0
  3  5  1  0  0  0  0
  4  3  1  0  0  0  0
  5  6  1  0  0  0  0
  5  7  2  0  0  0  0
  7  8  1  0  0  0  0
  9  7  1  0  0  0  0
  9 10  1  0  0  0  0
 11 12  1  0  0  0  0
 11  9  2  0  0  0  0
 13 14  1  0  0  0  0
 13 15  1  0  0  0  0
M  END
>  <SMILES>
c1ccccc1.O

>  <MoleculeName>
BenzeneWaterOHpi110

>  <Distance Scale>
1.1

>  <Energy Value>
-2.9

$$$$
/home/S66X8/3100_51EthyneEthyneTS095.xyz
 OpenBabel06262409173D

  8  6  0  0  0  0  0  0  0  0999 V2000
   -0.6017   -0.0286    0.3849 C   0  0  0  0  0  0  0  0  0  0  0  0
   -1.6637   -0.0285    0.3790 H   0  0  0  0  0  0  0  0  0  0  0  0
    0.6101   -0.0287    0.3882 C   0  0  0  0  0  0  0  0  0  0  0  0
    1.6721   -0.0288    0.3880 H   0  0  0  0  0  0  0  0  0  0  0  0
   -0.0070    0.0960    4.0209 C   0  0  0  0  0  0  0  0  0  0  0  0
   -0.0036    0.0623    2.9576 H   0  0  0  0  0  0  0  0  0  0  0  0
   -0.0109    0.1343    5.2323 C   0  0  0  0  0  0  0  0  0  0  0  0
   -0.0142    0.1677    6.2932 H   0  0  0  0  0  0  0  0  0  0  0  0
  1  3  3  0  0  0  0
  2  1  1  0  0  0  0
  4  3  1  0  0  0  0
  5  7  3  0  0  0  0
  6  5  1  0  0  0  0
  7  8  1  0  0  0  0
M  END
>  <SMILES>
C#C.C#C

>  <MoleculeName>
EthyneEthyneTS095

>  <Distance Scale>
0.95

>  <Energy Value>
-1.47

$$$$
/home/S66X8/2845_19MeOHPyridine100.xyz
 OpenBabel06262409173D

 17 16  0  0  0  0  0  0  0  0999 V2000
   -0.6277    0.0875    0.0015 O   0  0  0  0  0  0  0  0  0  0  0  0
    0.3436    0.1223   -0.0006 H   0  0  0  0  0  0  0  0  0  0  0  0
   -0.9779   -1.2786    0.0012 C   0  0  0  0  0  0  0  0  0  0  0  0
   -2.0634   -1.3420    0.0050 H   0  0  0  0  0  0  0  0  0  0  0  0
   -0.6149   -1.8064   -0.8854 H   0  0  0  0  0  0  0  0  0  0  0  0
   -0.6086   -1.8082    0.8842 H   0  0  0  0  0  0  0  0  0  0  0  0
    2.2935    0.0153   -0.0016 N   0  0  0  0  0  0  0  0  0  0  0  0
    2.9898   -0.0092   -1.1464 C   0  0  0  0  0  0  0  0  0  0  0  0
    2.4053    0.0141   -2.0573 H   0  0  0  0  0  0  0  0  0  0  0  0
    4.3795   -0.0589   -1.1950 C   0  0  0  0  0  0  0  0  0  0  0  0
    4.8868   -0.0762   -2.1488 H   0  0  0  0  0  0  0  0  0  0  0  0
    5.0898   -0.0846    0.0006 C   0  0  0  0  0  0  0  0  0  0  0  0
    6.1702   -0.1224    0.0014 H   0  0  0  0  0  0  0  0  0  0  0  0
    4.3776   -0.0596    1.1951 C   0  0  0  0  0  0  0  0  0  0  0  0
    4.8834   -0.0774    2.1496 H   0  0  0  0  0  0  0  0  0  0  0  0
    2.9880   -0.0098    1.1442 C   0  0  0  0  0  0  0  0  0  0  0  0
    2.4020    0.0128    2.0543 H   0  0  0  0  0  0  0  0  0  0  0  0
  2  1  1  0  0  0  0
  3  1  1  0  0  0  0
  3  4  1  0  0  0  0
  3  6  1  0  0  0  0
  5  3  1  0  0  0  0
  7 16  1  0  0  0  0
  8  7  2  0  0  0  0
  9  8  1  0  0  0  0
 10  8  1  0  0  0  0
 10 12  2  0  0  0  0
 11 10  1  0  0  0  0
 12 13  1  0  0  0  0
 12 14  1  0  0  0  0
 14 15  1  0  0  0  0
 16 14  2  0  0  0  0
 16 17  1  0  0  0  0
M  END
>  <SMILES>
OC.n1ccccc1

>  <MoleculeName>
MeOHPyridine100

>  <Distance Scale>
1.0

>  <Energy Value>
-7.4

$$$$
/home/S66X8/2843_19MeOHPyridine090.xyz
 OpenBabel06262409173D

 17 16  0  0  0  0  0  0  0  0999 V2000
   -0.6277    0.0875    0.0015 O   0  0  0  0  0  0  0  0  0  0  0  0
    0.3436    0.1223   -0.0006 H   0  0  0  0  0  0  0  0  0  0  0  0
   -0.9779   -1.2786    0.0012 C   0  0  0  0  0  0  0  0  0  0  0  0
   -2.0634   -1.3420    0.0050 H   0  0  0  0  0  0  0  0  0  0  0  0
   -0.6149   -1.8064   -0.8854 H   0  0  0  0  0  0  0  0  0  0  0  0
   -0.6086   -1.8082    0.8842 H   0  0  0  0  0  0  0  0  0  0  0  0
    2.0986    0.0260   -0.0015 N   0  0  0  0  0  0  0  0  0  0  0  0
    2.7949    0.0015   -1.1463 C   0  0  0  0  0  0  0  0  0  0  0  0
    2.2105    0.0248   -2.0572 H   0  0  0  0  0  0  0  0  0  0  0  0
    4.1846   -0.0482   -1.1949 C   0  0  0  0  0  0  0  0  0  0  0  0
    4.6919   -0.0655   -2.1487 H   0  0  0  0  0  0  0  0  0  0  0  0
    4.8950   -0.0739    0.0007 C   0  0  0  0  0  0  0  0  0  0  0  0
    5.9753   -0.1117    0.0015 H   0  0  0  0  0  0  0  0  0  0  0  0
    4.1827   -0.0489    1.1952 C   0  0  0  0  0  0  0  0  0  0  0  0
    4.6885   -0.0667    2.1497 H   0  0  0  0  0  0  0  0  0  0  0  0
    2.7931    0.0009    1.1443 C   0  0  0  0  0  0  0  0  0  0  0  0
    2.2071    0.0235    2.0544 H   0  0  0  0  0  0  0  0  0  0  0  0
  2  1  1  0  0  0  0
  3  1  1  0  0  0  0
  3  4  1  0  0  0  0
  3  6  1  0  0  0  0
  5  3  1  0  0  0  0
  7 16  1  0  0  0  0
  8  7  2  0  0  0  0
  9  8  1  0  0  0  0
 10  8  1  0  0  0  0
 10 12  2  0  0  0  0
 11 10  1  0  0  0  0
 12 13  1  0  0  0  0
 12 14  1  0  0  0  0
 14 15  1  0  0  0  0
 16 14  2  0  0  0  0
 16 17  1  0  0  0  0
M  END
>  <SMILES>
OC.n1ccccc1

>  <MoleculeName>
MeOHPyridine090

>  <Distance Scale>
0.9

>  <Energy Value>
-6.78

$$$$
/home/S66X8/3086_49BenzenePyridineTS105.xyz
 OpenBabel06262409173D

 23 23  0  0  0  0  0  0  0  0999 V2000
    0.8451    1.0579    0.6995 C   0  0  0  0  0  0  0  0  0  0  0  0
    1.5064    1.9032    0.8334 H   0  0  0  0  0  0  0  0  0  0  0  0
    1.3755   -0.2175    0.5112 C   0  0  0  0  0  0  0  0  0  0  0  0
    2.4472   -0.3615    0.5029 H   0  0  0  0  0  0  0  0  0  0  0  0
    0.5241   -1.3070    0.3332 C   0  0  0  0  0  0  0  0  0  0  0  0
    0.9357   -2.2960    0.1849 H   0  0  0  0  0  0  0  0  0  0  0  0
   -0.8577   -1.1215    0.3464 C   0  0  0  0  0  0  0  0  0  0  0  0
   -1.5184   -1.9665    0.2084 H   0  0  0  0  0  0  0  0  0  0  0  0
   -1.3880    0.1536    0.5376 C   0  0  0  0  0  0  0  0  0  0  0  0
   -2.4597    0.2974    0.5500 H   0  0  0  0  0  0  0  0  0  0  0  0
   -0.5366    1.2434    0.7127 C   0  0  0  0  0  0  0  0  0  0  0  0
   -0.9489    2.2328    0.8574 H   0  0  0  0  0  0  0  0  0  0  0  0
    0.0216    0.3270    6.8977 N   0  0  0  0  0  0  0  0  0  0  0  0
    0.1762    1.2650    5.9528 C   0  0  0  0  0  0  0  0  0  0  0  0
    0.3180    2.2775    6.3107 H   0  0  0  0  0  0  0  0  0  0  0  0
    0.1620    0.9977    4.5863 C   0  0  0  0  0  0  0  0  0  0  0  0
    0.2923    1.7987    3.8724 H   0  0  0  0  0  0  0  0  0  0  0  0
   -0.0223   -0.3140    4.1610 C   0  0  0  0  0  0  0  0  0  0  0  0
   -0.0389   -0.5571    3.1077 H   0  0  0  0  0  0  0  0  0  0  0  0
   -0.1841   -1.2990    5.1299 C   0  0  0  0  0  0  0  0  0  0  0  0
   -0.3307   -2.3342    4.8551 H   0  0  0  0  0  0  0  0  0  0  0  0
   -0.1549   -0.9317    6.4730 C   0  0  0  0  0  0  0  0  0  0  0  0
   -0.2785   -1.6792    7.2471 H   0  0  0  0  0  0  0  0  0  0  0  0
  1 11  1  0  0  0  0
  1  2  1  0  0  0  0
  3  1  2  0  0  0  0
  4  3  1  0  0  0  0
  5  7  2  0  0  0  0
  5  3  1  0  0  0  0
  6  5  1  0  0  0  0
  7  9  1  0  0  0  0
  8  7  1  0  0  0  0
  9 10  1  0  0  0  0
  9 11  2  0  0  0  0
 11 12  1  0  0  0  0
 14 15  1  0  0  0  0
 14 13  2  0  0  0  0
 16 14  1  0  0  0  0
 17 16  1  0  0  0  0
 18 16  2  0  0  0  0
 18 20  1  0  0  0  0
 19 18  1  0  0  0  0
 20 22  2  0  0  0  0
 21 20  1  0  0  0  0
 22 13  1  0  0  0  0
 22 23  1  0  0  0  0
M  END
>  <SMILES>
c1ccccc1.n1ccccc1

>  <MoleculeName>
BenzenePyridineTS105

>  <Distance Scale>
1.05

>  <Energy Value>
-3.26

$$$$
/home/S66X8/2731_05MeOHMeOH090.xyz
 OpenBabel06262409173D

 12 10  0  0  0  0  0  0  0  0999 V2000
   -0.6361   -0.0233    0.2806 O   0  0  0  0  0  0  0  0  0  0  0  0
    0.3081   -0.0471    0.0765 H   0  0  0  0  0  0  0  0  0  0  0  0
   -1.1521   -1.3113    0.0153 C   0  0  0  0  0  0  0  0  0  0  0  0
   -2.2099   -1.2963    0.2640 H   0  0  0  0  0  0  0  0  0  0  0  0
   -1.0566   -1.5927   -1.0362 H   0  0  0  0  0  0  0  0  0  0  0  0
   -0.6748   -2.0863    0.6205 H   0  0  0  0  0  0  0  0  0  0  0  0
    2.0480   -0.1157   -0.0045 O   0  0  0  0  0  0  0  0  0  0  0  0
    2.5168    0.4987   -0.5742 H   0  0  0  0  0  0  0  0  0  0  0  0
    2.5569    0.0413    1.3172 C   0  0  0  0  0  0  0  0  0  0  0  0
    2.0033   -0.6469    1.9473 H   0  0  0  0  0  0  0  0  0  0  0  0
    3.6159   -0.2091    1.3739 H   0  0  0  0  0  0  0  0  0  0  0  0
    2.4044    1.0520    1.6951 H   0  0  0  0  0  0  0  0  0  0  0  0
  2  1  1  0  0  0  0
  3  4  1  0  0  0  0
  3  1  1  0  0  0  0
  3  6  1  0  0  0  0
  5  3  1  0  0  0  0
  7  9  1  0  0  0  0
  8  7  1  0  0  0  0
  9 11  1  0  0  0  0
  9 12  1  0  0  0  0
  9 10  1  0  0  0  0
M  END
>  <SMILES>
OC.OC

>  <MoleculeName>
MeOHMeOH090

>  <Distance Scale>
0.9

>  <Energy Value>
-5.28

$$$$
/home/S66X8/2963_34PentanePentane090.xyz
 OpenBabel06262409173D

 34 32  0  0  0  0  0  0  0  0999 V2000
   -2.5333   -0.2949    0.7131 C   0  0  0  0  0  0  0  0  0  0  0  0
   -2.5636   -0.9771   -0.1364 H   0  0  0  0  0  0  0  0  0  0  0  0
   -2.5670   -0.8959    1.6217 H   0  0  0  0  0  0  0  0  0  0  0  0
   -3.4344    0.3160    0.6841 H   0  0  0  0  0  0  0  0  0  0  0  0
   -1.2719    0.5577    0.6744 C   0  0  0  0  0  0  0  0  0  0  0  0
   -1.2710    1.2566    1.5143 H   0  0  0  0  0  0  0  0  0  0  0  0
   -1.2666    1.1679   -0.2318 H   0  0  0  0  0  0  0  0  0  0  0  0
   -0.0001   -0.2784    0.7196 C   0  0  0  0  0  0  0  0  0  0  0  0
   -0.0002   -0.8872    1.6286 H   0  0  0  0  0  0  0  0  0  0  0  0
   -0.0004   -0.9807   -0.1194 H   0  0  0  0  0  0  0  0  0  0  0  0
    1.2719    0.5574    0.6741 C   0  0  0  0  0  0  0  0  0  0  0  0
    1.2710    1.2566    1.5137 H   0  0  0  0  0  0  0  0  0  0  0  0
    1.2666    1.1672   -0.2324 H   0  0  0  0  0  0  0  0  0  0  0  0
    2.5334   -0.2949    0.7133 C   0  0  0  0  0  0  0  0  0  0  0  0
    2.5639   -0.9778   -0.1358 H   0  0  0  0  0  0  0  0  0  0  0  0
    3.4343    0.3163    0.6836 H   0  0  0  0  0  0  0  0  0  0  0  0
    2.5676   -0.8952    1.6223 H   0  0  0  0  0  0  0  0  0  0  0  0
    2.5336    0.3007    4.2333 C   0  0  0  0  0  0  0  0  0  0  0  0
    2.5681    0.9005    3.3240 H   0  0  0  0  0  0  0  0  0  0  0  0
    2.5641    0.9839    5.0820 H   0  0  0  0  0  0  0  0  0  0  0  0
    3.4342   -0.3108    4.2635 H   0  0  0  0  0  0  0  0  0  0  0  0
    1.2717   -0.5512    4.2726 C   0  0  0  0  0  0  0  0  0  0  0  0
    1.2663   -1.1609    5.1791 H   0  0  0  0  0  0  0  0  0  0  0  0
    1.2706   -1.2505    3.4330 H   0  0  0  0  0  0  0  0  0  0  0  0
   -0.0000    0.2849    4.2270 C   0  0  0  0  0  0  0  0  0  0  0  0
   -0.0002    0.9872    5.0660 H   0  0  0  0  0  0  0  0  0  0  0  0
    0.0000    0.8937    3.3179 H   0  0  0  0  0  0  0  0  0  0  0  0
   -1.2718   -0.5512    4.2722 C   0  0  0  0  0  0  0  0  0  0  0  0
   -1.2664   -1.1613    5.1785 H   0  0  0  0  0  0  0  0  0  0  0  0
   -1.2707   -1.2502    3.4324 H   0  0  0  0  0  0  0  0  0  0  0  0
   -2.5335    0.3008    4.2333 C   0  0  0  0  0  0  0  0  0  0  0  0
   -2.5677    0.9014    3.3244 H   0  0  0  0  0  0  0  0  0  0  0  0
   -3.4343   -0.3105    4.2628 H   0  0  0  0  0  0  0  0  0  0  0  0
   -2.5641    0.9834    5.0825 H   0  0  0  0  0  0  0  0  0  0  0  0
  1  3  1  0  0  0  0
  2  1  1  0  0  0  0
  4  1  1  0  0  0  0
  5  1  1  0  0  0  0
  5  8  1  0  0  0  0
  5  6  1  0  0  0  0
  7  5  1  0  0  0  0
  8  9  1  0  0  0  0
 10  8  1  0  0  0  0
 11 14  1  0  0  0  0
 11  8  1  0  0  0  0
 11 12  1  0  0  0  0
 13 11  1  0  0  0  0
 14 17  1  0  0  0  0
 15 14  1  0  0  0  0
 16 14  1  0  0  0  0
 18 21  1  0  0  0  0
 18 22  1  0  0  0  0
 18 20  1  0  0  0  0
 19 18  1  0  0  0  0
 22 23  1  0  0  0  0
 24 22  1  0  0  0  0
 25 28  1  0  0  0  0
 25 22  1  0  0  0  0
 25 26  1  0  0  0  0
 27 25  1  0  0  0  0
 28 29  1  0  0  0  0
 30 28  1  0  0  0  0
 31 33  1  0  0  0  0
 31 28  1  0  0  0  0
 31 34  1  0  0  0  0
 32 31  1  0  0  0  0
M  END
>  <SMILES>
CCCCC.CCCCC

>  <MoleculeName>
PentanePentane090

>  <Distance Scale>
0.9

>  <Energy Value>
-2.86

$$$$
/home/S66X8/2889_24BenzeneBenzenepipi150.xyz
 OpenBabel06262409173D

 24 24  0  0  0  0  0  0  0  0999 V2000
    0.7126    1.1210    0.0605 C   0  0  0  0  0  0  0  0  0  0  0  0
    1.3578    1.9864    0.1277 H   0  0  0  0  0  0  0  0  0  0  0  0
    1.2582   -0.1593    0.1242 C   0  0  0  0  0  0  0  0  0  0  0  0
    2.3250   -0.2871    0.2467 H   0  0  0  0  0  0  0  0  0  0  0  0
    0.4269   -1.2745    0.0427 C   0  0  0  0  0  0  0  0  0  0  0  0
    0.8504   -2.2684    0.0947 H   0  0  0  0  0  0  0  0  0  0  0  0
   -0.9496   -1.1101   -0.1003 C   0  0  0  0  0  0  0  0  0  0  0  0
   -1.5945   -1.9763   -0.1637 H   0  0  0  0  0  0  0  0  0  0  0  0
   -1.4955    0.1711   -0.1615 C   0  0  0  0  0  0  0  0  0  0  0  0
   -2.5638    0.2992   -0.2737 H   0  0  0  0  0  0  0  0  0  0  0  0
   -0.6638    1.2866   -0.0834 C   0  0  0  0  0  0  0  0  0  0  0  0
   -1.0869    2.2810   -0.1329 H   0  0  0  0  0  0  0  0  0  0  0  0
    2.5740    1.1043    5.3873 C   0  0  0  0  0  0  0  0  0  0  0  0
    3.2188    1.9704    5.4511 H   0  0  0  0  0  0  0  0  0  0  0  0
    3.1199   -0.1769    5.4488 C   0  0  0  0  0  0  0  0  0  0  0  0
    4.1881   -0.3050    5.5616 H   0  0  0  0  0  0  0  0  0  0  0  0
    2.2883   -1.2925    5.3702 C   0  0  0  0  0  0  0  0  0  0  0  0
    2.7114   -2.2868    5.4198 H   0  0  0  0  0  0  0  0  0  0  0  0
    0.9119   -1.1269    5.2255 C   0  0  0  0  0  0  0  0  0  0  0  0
    0.2668   -1.9923    5.1578 H   0  0  0  0  0  0  0  0  0  0  0  0
    0.3663    0.1534    5.1615 C   0  0  0  0  0  0  0  0  0  0  0  0
   -0.7003    0.2812    5.0383 H   0  0  0  0  0  0  0  0  0  0  0  0
    1.1976    1.2687    5.2436 C   0  0  0  0  0  0  0  0  0  0  0  0
    0.7741    2.2626    5.1912 H   0  0  0  0  0  0  0  0  0  0  0  0
  1  3  1  0  0  0  0
  1  2  1  0  0  0  0
  3  4  1  0  0  0  0
  5  6  1  0  0  0  0
  5  3  2  0  0  0  0
  7  5  1  0  0  0  0
  8  7  1  0  0  0  0
  9  7  2  0  0  0  0
  9 11  1  0  0  0  0
 10  9  1  0  0  0  0
 11  1  2  0  0  0  0
 12 11  1  0  0  0  0
 13 15  1  0  0  0  0
 13 14  1  0  0  0  0
 15 16  1  0  0  0  0
 17 18  1  0  0  0  0
 17 15  2  0  0  0  0
 19 17  1  0  0  0  0
 20 19  1  0  0  0  0
 21 19  2  0  0  0  0
 21 23  1  0  0  0  0
 22 21  1  0  0  0  0
 23 13  2  0  0  0  0
 24 23  1  0  0  0  0
M  END
>  <SMILES>
c1ccccc1.c1ccccc1

>  <MoleculeName>
BenzeneBenzenepipi150

>  <Distance Scale>
1.5

>  <Energy Value>
-0.49

$$$$
/home/S66X8/3188_62PentaneAcNH2095.xyz
 OpenBabel06262409173D

 26 24  0  0  0  0  0  0  0  0999 V2000
   -2.5878   -0.3231    0.4695 C   0  0  0  0  0  0  0  0  0  0  0  0
   -2.6104   -0.8764   -0.4696 H   0  0  0  0  0  0  0  0  0  0  0  0
   -2.6597   -1.0519    1.2777 H   0  0  0  0  0  0  0  0  0  0  0  0
   -3.4760    0.3056    0.5090 H   0  0  0  0  0  0  0  0  0  0  0  0
   -1.3096    0.4974    0.5851 C   0  0  0  0  0  0  0  0  0  0  0  0
   -1.3173    1.0833    1.5063 H   0  0  0  0  0  0  0  0  0  0  0  0
   -1.2624    1.2156   -0.2368 H   0  0  0  0  0  0  0  0  0  0  0  0
   -0.0568   -0.3683    0.5584 C   0  0  0  0  0  0  0  0  0  0  0  0
   -0.0862   -1.0734    1.3959 H   0  0  0  0  0  0  0  0  0  0  0  0
   -0.0538   -0.9768   -0.3515 H   0  0  0  0  0  0  0  0  0  0  0  0
    1.2316    0.4401    0.6320 C   0  0  0  0  0  0  0  0  0  0  0  0
    1.2133    1.0536    1.5346 H   0  0  0  0  0  0  0  0  0  0  0  0
    1.2663    1.1314   -0.2131 H   0  0  0  0  0  0  0  0  0  0  0  0
    2.4726   -0.4431    0.6192 C   0  0  0  0  0  0  0  0  0  0  0  0
    2.5207   -1.0353   -0.2949 H   0  0  0  0  0  0  0  0  0  0  0  0
    3.3877    0.1441    0.6839 H   0  0  0  0  0  0  0  0  0  0  0  0
    2.4593   -1.1394    1.4586 H   0  0  0  0  0  0  0  0  0  0  0  0
    0.0408    0.1983    4.0523 C   0  0  0  0  0  0  0  0  0  0  0  0
    0.0677    1.3834    3.7604 O   0  0  0  0  0  0  0  0  0  0  0  0
    1.1734   -0.5536    4.1551 N   0  0  0  0  0  0  0  0  0  0  0  0
    2.0443   -0.1310    3.8864 H   0  0  0  0  0  0  0  0  0  0  0  0
    1.1344   -1.5454    4.2865 H   0  0  0  0  0  0  0  0  0  0  0  0
   -1.2494   -0.5406    4.3167 C   0  0  0  0  0  0  0  0  0  0  0  0
   -1.1022   -1.5013    4.8038 H   0  0  0  0  0  0  0  0  0  0  0  0
   -1.7557   -0.6989    3.3659 H   0  0  0  0  0  0  0  0  0  0  0  0
   -1.8874    0.0866    4.9320 H   0  0  0  0  0  0  0  0  0  0  0  0
  1  4  1  0  0  0  0
  1  5  1  0  0  0  0
  1  3  1  0  0  0  0
  2  1  1  0  0  0  0
  5  6  1  0  0  0  0
  7  5  1  0  0  0  0
  8  5  1  0  0  0  0
  8 11  1  0  0  0  0
  8  9  1  0  0  0  0
 10  8  1  0  0  0  0
 11 12  1  0  0  0  0
 13 11  1  0  0  0  0
 14 11  1  0  0  0  0
 14 16  1  0  0  0  0
 14 17  1  0  0  0  0
 15 14  1  0  0  0  0
 18 20  1  0  0  0  0
 18 23  1  0  0  0  0
 19 18  2  0  0  0  0
 20 22  1  0  0  0  0
 21 20  1  0  0  0  0
 23 24  1  0  0  0  0
 23 26  1  0  0  0  0
 25 23  1  0  0  0  0
M  END
>  <SMILES>
CCCCC.C(=O)(N)C

>  <MoleculeName>
PentaneAcNH2095

>  <Distance Scale>
0.95

>  <Energy Value>
-3.5

$$$$
/home/S66X8/2774_10MeNH2MeNH2105.xyz
 OpenBabel06262409173D

 14 12  0  0  0  0  0  0  0  0999 V2000
   -0.6386    0.4709    0.0446 N   0  0  0  0  0  0  0  0  0  0  0  0
    0.1900   -0.1139   -0.0058 H   0  0  0  0  0  0  0  0  0  0  0  0
   -1.3005    0.0813   -0.6137 H   0  0  0  0  0  0  0  0  0  0  0  0
   -1.1987    0.3914    1.3919 C   0  0  0  0  0  0  0  0  0  0  0  0
   -2.0927    1.0092    1.4532 H   0  0  0  0  0  0  0  0  0  0  0  0
   -1.4627   -0.6158    1.7295 H   0  0  0  0  0  0  0  0  0  0  0  0
   -0.4803    0.7987    2.1011 H   0  0  0  0  0  0  0  0  0  0  0  0
    2.5427   -0.4778    0.2103 N   0  0  0  0  0  0  0  0  0  0  0  0
    2.8390   -0.2032   -0.7177 H   0  0  0  0  0  0  0  0  0  0  0  0
    3.1663   -1.2255    0.4854 H   0  0  0  0  0  0  0  0  0  0  0  0
    2.7030    0.6574    1.1239 C   0  0  0  0  0  0  0  0  0  0  0  0
    2.4328    0.3427    2.1296 H   0  0  0  0  0  0  0  0  0  0  0  0
    3.7104    1.0792    1.1609 H   0  0  0  0  0  0  0  0  0  0  0  0
    2.0104    1.4432    0.8313 H   0  0  0  0  0  0  0  0  0  0  0  0
  1  4  1  0  0  0  0
  2  1  1  0  0  0  0
  3  1  1  0  0  0  0
  4  5  1  0  0  0  0
  4  6  1  0  0  0  0
  4  7  1  0  0  0  0
  8 10  1  0  0  0  0
  8 11  1  0  0  0  0
  9  8  1  0  0  0  0
 11 13  1  0  0  0  0
 11 12  1  0  0  0  0
 14 11  1  0  0  0  0
M  END
>  <SMILES>
NC.NC

>  <MoleculeName>
MeNH2MeNH2105

>  <Distance Scale>
1.05

>  <Energy Value>
-4.01

$$$$
/home/S66X8/2925_29PyridineUracilpipi100.xyz
 OpenBabel06262409173D

 23 23  0  0  0  0  0  0  0  0999 V2000
    1.2108    0.0287    0.3297 N   0  0  0  0  0  0  0  0  0  0  0  0
    0.6119   -1.1584    0.1535 C   0  0  0  0  0  0  0  0  0  0  0  0
    1.2515   -2.0295    0.2193 H   0  0  0  0  0  0  0  0  0  0  0  0
   -0.7513   -1.3086   -0.0888 C   0  0  0  0  0  0  0  0  0  0  0  0
   -1.1704   -2.2969   -0.2134 H   0  0  0  0  0  0  0  0  0  0  0  0
   -1.5479   -0.1699   -0.1565 C   0  0  0  0  0  0  0  0  0  0  0  0
   -2.6110   -0.2460   -0.3388 H   0  0  0  0  0  0  0  0  0  0  0  0
   -0.9436    1.0706    0.0198 C   0  0  0  0  0  0  0  0  0  0  0  0
   -1.5188    1.9845   -0.0116 H   0  0  0  0  0  0  0  0  0  0  0  0
    0.4277    1.1161    0.2573 C   0  0  0  0  0  0  0  0  0  0  0  0
    0.9247    2.0681    0.3975 H   0  0  0  0  0  0  0  0  0  0  0  0
   -0.7148   -0.2849    3.2788 N   0  0  0  0  0  0  0  0  0  0  0  0
   -1.6097   -0.7168    3.0942 H   0  0  0  0  0  0  0  0  0  0  0  0
   -0.7146    1.1129    3.3718 C   0  0  0  0  0  0  0  0  0  0  0  0
   -1.7545    1.7411    3.2570 O   0  0  0  0  0  0  0  0  0  0  0  0
    0.6049    1.6720    3.5994 C   0  0  0  0  0  0  0  0  0  0  0  0
    0.7062    2.7392    3.6953 H   0  0  0  0  0  0  0  0  0  0  0  0
    1.6748    0.8533    3.6709 C   0  0  0  0  0  0  0  0  0  0  0  0
    2.6787    1.2220    3.8194 H   0  0  0  0  0  0  0  0  0  0  0  0
    1.5567   -0.5040    3.5584 N   0  0  0  0  0  0  0  0  0  0  0  0
    2.3702   -1.0962    3.5502 H   0  0  0  0  0  0  0  0  0  0  0  0
    0.3563   -1.1512    3.3320 C   0  0  0  0  0  0  0  0  0  0  0  0
    0.2641   -2.3566    3.1984 O   0  0  0  0  0  0  0  0  0  0  0  0
  2  3  1  0  0  0  0
  2  1  2  0  0  0  0
  4  2  1  0  0  0  0
  5  4  1  0  0  0  0
  6  4  2  0  0  0  0
  6  8  1  0  0  0  0
  7  6  1  0  0  0  0
  8 10  2  0  0  0  0
  9  8  1  0  0  0  0
 10  1  1  0  0  0  0
 10 11  1  0  0  0  0
 12 22  1  0  0  0  0
 12 14  1  0  0  0  0
 13 12  1  0  0  0  0
 14 16  1  0  0  0  0
 15 14  2  0  0  0  0
 16 18  2  0  0  0  0
 16 17  1  0  0  0  0
 18 19  1  0  0  0  0
 20 18  1  0  0  0  0
 21 20  1  0  0  0  0
 22 20  1  0  0  0  0
 23 22  2  0  0  0  0
M  END
>  <SMILES>
n1ccccc1.[nH]1c(=O)cc[nH]c1=O

>  <MoleculeName>
PyridineUracilpipi100

>  <Distance Scale>
1.0

>  <Energy Value>
-6.81

$$$$
/home/S66X8/3008_39BenzeneCyclopentane125.xyz
 OpenBabel06262409173D

 27 27  0  0  0  0  0  0  0  0999 V2000
    0.7655    0.8682    0.8210 C   0  0  0  0  0  0  0  0  0  0  0  0
    1.4375    1.6800    1.0651 H   0  0  0  0  0  0  0  0  0  0  0  0
    1.2377   -0.4428    0.7939 C   0  0  0  0  0  0  0  0  0  0  0  0
    2.2758   -0.6485    1.0177 H   0  0  0  0  0  0  0  0  0  0  0  0
    0.3722   -1.4885    0.4773 C   0  0  0  0  0  0  0  0  0  0  0  0
    0.7382   -2.5061    0.4571 H   0  0  0  0  0  0  0  0  0  0  0  0
   -0.9649   -1.2230    0.1869 C   0  0  0  0  0  0  0  0  0  0  0  0
   -1.6365   -2.0346   -0.0578 H   0  0  0  0  0  0  0  0  0  0  0  0
   -1.4371    0.0884    0.2133 C   0  0  0  0  0  0  0  0  0  0  0  0
   -2.4747    0.2943   -0.0115 H   0  0  0  0  0  0  0  0  0  0  0  0
   -0.5719    1.1340    0.5308 C   0  0  0  0  0  0  0  0  0  0  0  0
   -0.9377    2.1517    0.5511 H   0  0  0  0  0  0  0  0  0  0  0  0
   -0.7287   -0.6652    4.8288 C   0  0  0  0  0  0  0  0  0  0  0  0
   -0.8349   -0.4903    3.7565 H   0  0  0  0  0  0  0  0  0  0  0  0
   -1.3803   -1.4945    5.1020 H   0  0  0  0  0  0  0  0  0  0  0  0
    0.7409   -0.9223    5.1730 C   0  0  0  0  0  0  0  0  0  0  0  0
    1.2361   -1.5599    4.4424 H   0  0  0  0  0  0  0  0  0  0  0  0
    0.8042   -1.4225    6.1404 H   0  0  0  0  0  0  0  0  0  0  0  0
    1.3810    0.4831    5.2639 C   0  0  0  0  0  0  0  0  0  0  0  0
    2.0313    0.6758    4.4121 H   0  0  0  0  0  0  0  0  0  0  0  0
    1.9939    0.5723    6.1596 H   0  0  0  0  0  0  0  0  0  0  0  0
    0.2020    1.4823    5.2908 C   0  0  0  0  0  0  0  0  0  0  0  0
    0.0848    1.9413    4.3085 H   0  0  0  0  0  0  0  0  0  0  0  0
    0.3476    2.2838    6.0132 H   0  0  0  0  0  0  0  0  0  0  0  0
   -1.0318    0.6252    5.5864 C   0  0  0  0  0  0  0  0  0  0  0  0
   -1.9628    1.1009    5.2805 H   0  0  0  0  0  0  0  0  0  0  0  0
   -1.0972    0.4159    6.6570 H   0  0  0  0  0  0  0  0  0  0  0  0
  1  2  1  0  0  0  0
  3  1  1  0  0  0  0
  3  4  1  0  0  0  0
  5  3  2  0  0  0  0
  6  5  1  0  0  0  0
  7  9  2  0  0  0  0
  7  5  1  0  0  0  0
  8  7  1  0  0  0  0
  9 11  1  0  0  0  0
 10  9  1  0  0  0  0
 11 12  1  0  0  0  0
 11  1  2  0  0  0  0
 13 15  1  0  0  0  0
 13 16  1  0  0  0  0
 13 25  1  0  0  0  0
 14 13  1  0  0  0  0
 16 19  1  0  0  0  0
 16 18  1  0  0  0  0
 17 16  1  0  0  0  0
 19 22  1  0  0  0  0
 19 21  1  0  0  0  0
 20 19  1  0  0  0  0
 22 25  1  0  0  0  0
 22 24  1  0  0  0  0
 23 22  1  0  0  0  0
 25 27  1  0  0  0  0
 26 25  1  0  0  0  0
M  END
>  <SMILES>
c1ccccc1.C1CCCC1

>  <MoleculeName>
BenzeneCyclopentane125

>  <Distance Scale>
1.25

>  <Energy Value>
-2.07

$$$$
/home/S66X8/2722_03WaterMeNH2200.xyz
 OpenBabel06262409173D

 10  8  0  0  0  0  0  0  0  0999 V2000
   -0.6875   -0.1117   -0.0196 O   0  0  0  0  0  0  0  0  0  0  0  0
   -1.0461    0.7759    0.0127 H   0  0  0  0  0  0  0  0  0  0  0  0
    0.2740    0.0259   -0.0035 H   0  0  0  0  0  0  0  0  0  0  0  0
    4.2949    0.1845    0.0157 N   0  0  0  0  0  0  0  0  0  0  0  0
    4.5903   -0.3681   -0.7791 H   0  0  0  0  0  0  0  0  0  0  0  0
    4.6050   -0.3262    0.8325 H   0  0  0  0  0  0  0  0  0  0  0  0
    4.9542    1.4929   -0.0246 C   0  0  0  0  0  0  0  0  0  0  0  0
    4.6437    2.0746    0.8400 H   0  0  0  0  0  0  0  0  0  0  0  0
    6.0455    1.4536   -0.0335 H   0  0  0  0  0  0  0  0  0  0  0  0
    4.6275    2.0288   -0.9124 H   0  0  0  0  0  0  0  0  0  0  0  0
  1  3  1  0  0  0  0
  1  2  1  0  0  0  0
  4  6  1  0  0  0  0
  5  4  1  0  0  0  0
  7  4  1  0  0  0  0
  7  8  1  0  0  0  0
  9  7  1  0  0  0  0
 10  7  1  0  0  0  0
M  END
>  <SMILES>
O.NC

>  <MoleculeName>
WaterMeNH2200

>  <Distance Scale>
2.0

>  <Energy Value>
-1.14

$$$$
/home/S66X8/3020_41UracilPentane095.xyz
 OpenBabel06262409173D

 29 28  0  0  0  0  0  0  0  0999 V2000
   -0.2089   -0.9646    0.5348 N   0  0  0  0  0  0  0  0  0  0  0  0
   -0.2242   -1.9731    0.6051 H   0  0  0  0  0  0  0  0  0  0  0  0
   -1.4463   -0.3446    0.3067 C   0  0  0  0  0  0  0  0  0  0  0  0
   -2.4612   -1.0108    0.1979 O   0  0  0  0  0  0  0  0  0  0  0  0
   -1.3578    1.1032    0.2281 C   0  0  0  0  0  0  0  0  0  0  0  0
   -2.2566    1.6677    0.0498 H   0  0  0  0  0  0  0  0  0  0  0  0
   -0.1630    1.7099    0.3811 C   0  0  0  0  0  0  0  0  0  0  0  0
   -0.0463    2.7824    0.3333 H   0  0  0  0  0  0  0  0  0  0  0  0
    0.9855    1.0008    0.6112 N   0  0  0  0  0  0  0  0  0  0  0  0
    1.8676    1.4669    0.7448 H   0  0  0  0  0  0  0  0  0  0  0  0
    1.0270   -0.3792    0.7126 C   0  0  0  0  0  0  0  0  0  0  0  0
    2.0492   -0.9974    0.9373 O   0  0  0  0  0  0  0  0  0  0  0  0
    1.1317    2.3558    3.9419 C   0  0  0  0  0  0  0  0  0  0  0  0
    0.7009    2.6668    2.9891 H   0  0  0  0  0  0  0  0  0  0  0  0
    0.4975    2.7612    4.7301 H   0  0  0  0  0  0  0  0  0  0  0  0
    2.1146    2.8162    4.0350 H   0  0  0  0  0  0  0  0  0  0  0  0
    1.2047    0.8369    4.0314 C   0  0  0  0  0  0  0  0  0  0  0  0
    1.6351    0.5473    4.9927 H   0  0  0  0  0  0  0  0  0  0  0  0
    1.8793    0.4457    3.2663 H   0  0  0  0  0  0  0  0  0  0  0  0
   -0.1600    0.1787    3.8766 C   0  0  0  0  0  0  0  0  0  0  0  0
   -0.8313    0.5476    4.6582 H   0  0  0  0  0  0  0  0  0  0  0  0
   -0.6075    0.4890    2.9267 H   0  0  0  0  0  0  0  0  0  0  0  0
   -0.1038   -1.3419    3.9362 C   0  0  0  0  0  0  0  0  0  0  0  0
    0.3199   -1.6444    4.8969 H   0  0  0  0  0  0  0  0  0  0  0  0
    0.5878   -1.7038    3.1717 H   0  0  0  0  0  0  0  0  0  0  0  0
   -1.4730   -1.9838    3.7524 C   0  0  0  0  0  0  0  0  0  0  0  0
   -1.9114   -1.7104    2.7923 H   0  0  0  0  0  0  0  0  0  0  0  0
   -1.4161   -3.0706    3.7965 H   0  0  0  0  0  0  0  0  0  0  0  0
   -2.1610   -1.6555    4.5317 H   0  0  0  0  0  0  0  0  0  0  0  0
  1  2  1  0  0  0  0
  1 11  1  0  0  0  0
  3  1  1  0  0  0  0
  4  3  2  0  0  0  0
  5  3  1  0  0  0  0
  5  7  2  0  0  0  0
  6  5  1  0  0  0  0
  7  9  1  0  0  0  0
  8  7  1  0  0  0  0
  9 11  1  0  0  0  0
  9 10  1  0  0  0  0
 11 12  2  0  0  0  0
 13 17  1  0  0  0  0
 13 16  1  0  0  0  0
 13 15  1  0  0  0  0
 14 13  1  0  0  0  0
 17 18  1  0  0  0  0
 19 17  1  0  0  0  0
 20 23  1  0  0  0  0
 20 17  1  0  0  0  0
 20 21  1  0  0  0  0
 22 20  1  0  0  0  0
 23 24  1  0  0  0  0
 25 23  1  0  0  0  0
 26 28  1  0  0  0  0
 26 23  1  0  0  0  0
 26 29  1  0  0  0  0
 27 26  1  0  0  0  0
M  END
>  <SMILES>
[nH]1c(=O)cc[nH]c1=O.CCCCC

>  <MoleculeName>
UracilPentane095

>  <Distance Scale>
0.95

>  <Energy Value>
-4.69

$$$$
/home/S66X8/2729_04WaterPeptide150.xyz
 OpenBabel06262409173D

 15 13  0  0  0  0  0  0  0  0999 V2000
   -0.3920   -0.3847    0.0761 O   0  0  0  0  0  0  0  0  0  0  0  0
   -0.9115    0.4138    0.1776 H   0  0  0  0  0  0  0  0  0  0  0  0
    0.5249   -0.0685    0.0905 H   0  0  0  0  0  0  0  0  0  0  0  0
    3.1878   -2.1403   -0.2472 C   0  0  0  0  0  0  0  0  0  0  0  0
    3.8378   -3.0015   -0.3802 H   0  0  0  0  0  0  0  0  0  0  0  0
    2.5069   -2.0629   -1.0911 H   0  0  0  0  0  0  0  0  0  0  0  0
    2.5748   -2.2791    0.6398 H   0  0  0  0  0  0  0  0  0  0  0  0
    3.9426   -0.8423   -0.1146 C   0  0  0  0  0  0  0  0  0  0  0  0
    3.3659    0.2330    0.0419 O   0  0  0  0  0  0  0  0  0  0  0  0
    5.2932   -0.9398   -0.1793 N   0  0  0  0  0  0  0  0  0  0  0  0
    5.6942   -1.8504   -0.3088 H   0  0  0  0  0  0  0  0  0  0  0  0
    6.1614    0.2121   -0.0698 C   0  0  0  0  0  0  0  0  0  0  0  0
    5.5249    1.0804    0.0650 H   0  0  0  0  0  0  0  0  0  0  0  0
    6.8270    0.1207    0.7863 H   0  0  0  0  0  0  0  0  0  0  0  0
    6.7559    0.3416   -0.9721 H   0  0  0  0  0  0  0  0  0  0  0  0
  1  3  1  0  0  0  0
  1  2  1  0  0  0  0
  4  8  1  0  0  0  0
  4  7  1  0  0  0  0
  5  4  1  0  0  0  0
  6  4  1  0  0  0  0
  8  9  2  0  0  0  0
 10  8  1  0  0  0  0
 10 12  1  0  0  0  0
 11 10  1  0  0  0  0
 12 13  1  0  0  0  0
 12 14  1  0  0  0  0
 15 12  1  0  0  0  0
M  END
>  <SMILES>
O.CC(=O)NC

>  <MoleculeName>
WaterPeptide150

>  <Distance Scale>
1.5

>  <Energy Value>
-3.83

$$$$
/home/S66X8/2837_18WaterPyridine100.xyz
 OpenBabel06262409173D

 14 13  0  0  0  0  0  0  0  0999 V2000
   -0.5528   -0.1017   -0.0005 O   0  0  0  0  0  0  0  0  0  0  0  0
   -0.8718    0.8018    0.0001 H   0  0  0  0  0  0  0  0  0  0  0  0
    0.4127   -0.0018   -0.0003 H   0  0  0  0  0  0  0  0  0  0  0  0
    2.4056    0.0987    0.0002 N   0  0  0  0  0  0  0  0  0  0  0  0
    3.1016    0.0648    1.1449 C   0  0  0  0  0  0  0  0  0  0  0  0
    2.5169    0.0884    2.0558 H   0  0  0  0  0  0  0  0  0  0  0  0
    4.4906   -0.0004    1.1949 C   0  0  0  0  0  0  0  0  0  0  0  0
    4.9965   -0.0253    2.1492 H   0  0  0  0  0  0  0  0  0  0  0  0
    5.2017   -0.0336   -0.0000 C   0  0  0  0  0  0  0  0  0  0  0  0
    6.2816   -0.0853   -0.0001 H   0  0  0  0  0  0  0  0  0  0  0  0
    4.4904   -0.0005   -1.1948 C   0  0  0  0  0  0  0  0  0  0  0  0
    4.9962   -0.0254   -2.1492 H   0  0  0  0  0  0  0  0  0  0  0  0
    3.1014    0.0647   -1.1447 C   0  0  0  0  0  0  0  0  0  0  0  0
    2.5166    0.0883   -2.0555 H   0  0  0  0  0  0  0  0  0  0  0  0
  1  3  1  0  0  0  0
  1  2  1  0  0  0  0
  4  5  1  0  0  0  0
  5  7  2  0  0  0  0
  5  6  1  0  0  0  0
  7  8  1  0  0  0  0
  9  7  1  0  0  0  0
 10  9  1  0  0  0  0
 11 13  1  0  0  0  0
 11  9  2  0  0  0  0
 12 11  1  0  0  0  0
 13  4  2  0  0  0  0
 14 13  1  0  0  0  0
M  END
>  <SMILES>
O.n1ccccc1

>  <MoleculeName>
WaterPyridine100

>  <Distance Scale>
1.0

>  <Energy Value>
-6.83

$$$$
/home/S66X8/2807_14PeptideMeNH2110.xyz
 OpenBabel06262409173D

 19 17  0  0  0  0  0  0  0  0999 V2000
   -0.7786   -0.4633    2.4904 C   0  0  0  0  0  0  0  0  0  0  0  0
    0.2247   -0.0510    2.4135 H   0  0  0  0  0  0  0  0  0  0  0  0
   -0.7225   -1.4871    2.8546 H   0  0  0  0  0  0  0  0  0  0  0  0
   -1.3519    0.1108    3.2137 H   0  0  0  0  0  0  0  0  0  0  0  0
   -1.5205   -0.4566    1.1723 C   0  0  0  0  0  0  0  0  0  0  0  0
   -2.7008   -0.7836    1.0896 O   0  0  0  0  0  0  0  0  0  0  0  0
   -0.7920   -0.0696    0.1006 N   0  0  0  0  0  0  0  0  0  0  0  0
    0.1941    0.1457    0.2029 H   0  0  0  0  0  0  0  0  0  0  0  0
   -1.3978   -0.0561   -1.2113 C   0  0  0  0  0  0  0  0  0  0  0  0
   -2.3149    0.5289   -1.1997 H   0  0  0  0  0  0  0  0  0  0  0  0
   -0.6988    0.3873   -1.9154 H   0  0  0  0  0  0  0  0  0  0  0  0
   -1.6530   -1.0615   -1.5454 H   0  0  0  0  0  0  0  0  0  0  0  0
    2.4616    0.2665    0.2912 N   0  0  0  0  0  0  0  0  0  0  0  0
    2.8652    0.8064    1.0464 H   0  0  0  0  0  0  0  0  0  0  0  0
    2.8796    0.6338   -0.5544 H   0  0  0  0  0  0  0  0  0  0  0  0
    2.8339   -1.1447    0.4450 C   0  0  0  0  0  0  0  0  0  0  0  0
    2.4076   -1.7157   -0.3764 H   0  0  0  0  0  0  0  0  0  0  0  0
    3.9093   -1.3314    0.4707 H   0  0  0  0  0  0  0  0  0  0  0  0
    2.3994   -1.5291    1.3648 H   0  0  0  0  0  0  0  0  0  0  0  0
  1  3  1  0  0  0  0
  1  4  1  0  0  0  0
  2  1  1  0  0  0  0
  5  1  1  0  0  0  0
  6  5  2  0  0  0  0
  7  8  1  0  0  0  0
  7  5  1  0  0  0  0
  9 10  1  0  0  0  0
  9  7  1  0  0  0  0
 11  9  1  0  0  0  0
 12  9  1  0  0  0  0
 13 16  1  0  0  0  0
 13 14  1  0  0  0  0
 15 13  1  0  0  0  0
 16 18  1  0  0  0  0
 16 19  1  0  0  0  0
 17 16  1  0  0  0  0
M  END
>  <SMILES>
CC(=O)NC.NC

>  <MoleculeName>
PeptideMeNH2110

>  <Distance Scale>
1.1

>  <Energy Value>
-6.97

$$$$
/home/S66X8/3057_45EthynePentane150.xyz
 OpenBabel06262409173D

 21 19  0  0  0  0  0  0  0  0999 V2000
   -0.6062    0.0559    0.5890 C   0  0  0  0  0  0  0  0  0  0  0  0
   -1.6680    0.0558    0.5890 H   0  0  0  0  0  0  0  0  0  0  0  0
    0.6058    0.0555    0.5893 C   0  0  0  0  0  0  0  0  0  0  0  0
    1.6677    0.0549    0.5897 H   0  0  0  0  0  0  0  0  0  0  0  0
   -2.5303   -0.3772    5.8050 C   0  0  0  0  0  0  0  0  0  0  0  0
   -2.5387   -1.0392    4.9386 H   0  0  0  0  0  0  0  0  0  0  0  0
   -2.5822   -1.0035    6.6956 H   0  0  0  0  0  0  0  0  0  0  0  0
   -3.4327    0.2317    5.7722 H   0  0  0  0  0  0  0  0  0  0  0  0
   -1.2698    0.4774    5.8161 C   0  0  0  0  0  0  0  0  0  0  0  0
   -1.2864    1.1504    6.6765 H   0  0  0  0  0  0  0  0  0  0  0  0
   -1.2445    1.1116    4.9273 H   0  0  0  0  0  0  0  0  0  0  0  0
    0.0001   -0.3610    5.8565 C   0  0  0  0  0  0  0  0  0  0  0  0
    0.0001   -0.9787    6.7596 H   0  0  0  0  0  0  0  0  0  0  0  0
    0.0002   -1.0493    5.0073 H   0  0  0  0  0  0  0  0  0  0  0  0
    1.2700    0.4774    5.8162 C   0  0  0  0  0  0  0  0  0  0  0  0
    1.2867    1.1504    6.6766 H   0  0  0  0  0  0  0  0  0  0  0  0
    1.2449    1.1116    4.9274 H   0  0  0  0  0  0  0  0  0  0  0  0
    2.5306   -0.3772    5.8052 C   0  0  0  0  0  0  0  0  0  0  0  0
    2.5389   -1.0392    4.9388 H   0  0  0  0  0  0  0  0  0  0  0  0
    3.4329    0.2317    5.7725 H   0  0  0  0  0  0  0  0  0  0  0  0
    2.5824   -1.0034    6.6958 H   0  0  0  0  0  0  0  0  0  0  0  0
  1  2  1  0  0  0  0
  1  3  3  0  0  0  0
  3  4  1  0  0  0  0
  5  9  1  0  0  0  0
  5  7  1  0  0  0  0
  6  5  1  0  0  0  0
  8  5  1  0  0  0  0
  9 12  1  0  0  0  0
  9 10  1  0  0  0  0
 11  9  1  0  0  0  0
 12 13  1  0  0  0  0
 14 12  1  0  0  0  0
 15 12  1  0  0  0  0
 15 16  1  0  0  0  0
 17 15  1  0  0  0  0
 18 15  1  0  0  0  0
 18 21  1  0  0  0  0
 19 18  1  0  0  0  0
 20 18  1  0  0  0  0
M  END
>  <SMILES>
C#C.CCCCC

>  <MoleculeName>
EthynePentane150

>  <Distance Scale>
1.5

>  <Energy Value>
-0.42

$$$$
/home/S66X8/3171_60EthyneAcOHOHpi090.xyz
 OpenBabel06262409173D

 12 10  0  0  0  0  0  0  0  0999 V2000
   -0.6106    0.2275   -0.1706 C   0  0  0  0  0  0  0  0  0  0  0  0
    0.1074    0.8614   -0.6342 H   0  0  0  0  0  0  0  0  0  0  0  0
   -1.3863   -0.5253    0.3800 C   0  0  0  0  0  0  0  0  0  0  0  0
   -2.0807   -1.1741    0.8544 H   0  0  0  0  0  0  0  0  0  0  0  0
    2.6517   -0.5602    0.4063 C   0  0  0  0  0  0  0  0  0  0  0  0
    2.3976    0.3959   -0.2926 O   0  0  0  0  0  0  0  0  0  0  0  0
    1.7038   -1.3346    0.9739 O   0  0  0  0  0  0  0  0  0  0  0  0
    0.8428   -0.9673    0.7062 H   0  0  0  0  0  0  0  0  0  0  0  0
    4.0274   -1.0417    0.7564 C   0  0  0  0  0  0  0  0  0  0  0  0
    4.7658   -0.4041    0.2856 H   0  0  0  0  0  0  0  0  0  0  0  0
    4.1536   -1.0298    1.8364 H   0  0  0  0  0  0  0  0  0  0  0  0
    4.1497   -2.0695    0.4232 H   0  0  0  0  0  0  0  0  0  0  0  0
  1  3  3  0  0  0  0
  2  1  1  0  0  0  0
  3  4  1  0  0  0  0
  5  9  1  0  0  0  0
  5  7  1  0  0  0  0
  6  5  2  0  0  0  0
  8  7  1  0  0  0  0
  9 11  1  0  0  0  0
 10  9  1  0  0  0  0
 12  9  1  0  0  0  0
M  END
>  <SMILES>
C#C.C(=O)(O)C

>  <MoleculeName>
EthyneAcOHOHpi090

>  <Distance Scale>
0.9

>  <Energy Value>
-4.28

$$$$
/home/S66X8/3160_58PyridinePyridineCHN125.xyz
 OpenBabel06262409173D

 22 22  0  0  0  0  0  0  0  0999 V2000
   -0.9412    0.7900    0.0117 N   0  0  0  0  0  0  0  0  0  0  0  0
   -0.9228   -0.5524    0.0354 C   0  0  0  0  0  0  0  0  0  0  0  0
    0.0572   -1.0156    0.0514 H   0  0  0  0  0  0  0  0  0  0  0  0
   -2.0765   -1.3330    0.0393 C   0  0  0  0  0  0  0  0  0  0  0  0
   -1.9965   -2.4106    0.0589 H   0  0  0  0  0  0  0  0  0  0  0  0
   -3.3163   -0.7033    0.0176 C   0  0  0  0  0  0  0  0  0  0  0  0
   -4.2316   -1.2791    0.0198 H   0  0  0  0  0  0  0  0  0  0  0  0
   -3.3489    0.6870   -0.0071 C   0  0  0  0  0  0  0  0  0  0  0  0
   -4.2854    1.2261   -0.0247 H   0  0  0  0  0  0  0  0  0  0  0  0
   -2.1431    1.3826   -0.0089 C   0  0  0  0  0  0  0  0  0  0  0  0
   -2.1381    2.4657   -0.0278 H   0  0  0  0  0  0  0  0  0  0  0  0
    3.3607   -0.9281    0.0414 N   0  0  0  0  0  0  0  0  0  0  0  0
    4.5625   -1.5212    0.0435 C   0  0  0  0  0  0  0  0  0  0  0  0
    4.5573   -2.6042    0.0654 H   0  0  0  0  0  0  0  0  0  0  0  0
    5.7684   -0.8263    0.0195 C   0  0  0  0  0  0  0  0  0  0  0  0
    6.7049   -1.3658    0.0226 H   0  0  0  0  0  0  0  0  0  0  0  0
    5.7361    0.5640   -0.0083 C   0  0  0  0  0  0  0  0  0  0  0  0
    6.6515    1.1393   -0.0274 H   0  0  0  0  0  0  0  0  0  0  0  0
    4.4964    1.1943   -0.0107 C   0  0  0  0  0  0  0  0  0  0  0  0
    4.4166    2.2719   -0.0318 H   0  0  0  0  0  0  0  0  0  0  0  0
    3.3425    0.4143    0.0145 C   0  0  0  0  0  0  0  0  0  0  0  0
    2.3626    0.8780    0.0128 H   0  0  0  0  0  0  0  0  0  0  0  0
  1  2  1  0  0  0  0
  2  4  2  0  0  0  0
  2  3  1  0  0  0  0
  4  5  1  0  0  0  0
  6  7  1  0  0  0  0
  6  4  1  0  0  0  0
  8  6  2  0  0  0  0
  9  8  1  0  0  0  0
 10  8  1  0  0  0  0
 10  1  2  0  0  0  0
 11 10  1  0  0  0  0
 12 13  1  0  0  0  0
 13 14  1  0  0  0  0
 15 16  1  0  0  0  0
 15 13  2  0  0  0  0
 17 15  1  0  0  0  0
 18 17  1  0  0  0  0
 19 17  2  0  0  0  0
 19 21  1  0  0  0  0
 20 19  1  0  0  0  0
 21 12  2  0  0  0  0
 22 21  1  0  0  0  0
M  END
>  <SMILES>
n1ccccc1.n1ccccc1

>  <MoleculeName>
PyridinePyridineCHN125

>  <Distance Scale>
1.25

>  <Energy Value>
-2.18

$$$$
/home/S66X8/3010_39BenzeneCyclopentane200.xyz
 OpenBabel06262409173D

 27 27  0  0  0  0  0  0  0  0999 V2000
    0.7655    0.8682    0.8210 C   0  0  0  0  0  0  0  0  0  0  0  0
    1.4375    1.6800    1.0651 H   0  0  0  0  0  0  0  0  0  0  0  0
    1.2377   -0.4428    0.7939 C   0  0  0  0  0  0  0  0  0  0  0  0
    2.2758   -0.6485    1.0177 H   0  0  0  0  0  0  0  0  0  0  0  0
    0.3722   -1.4885    0.4773 C   0  0  0  0  0  0  0  0  0  0  0  0
    0.7382   -2.5061    0.4571 H   0  0  0  0  0  0  0  0  0  0  0  0
   -0.9649   -1.2230    0.1869 C   0  0  0  0  0  0  0  0  0  0  0  0
   -1.6365   -2.0346   -0.0578 H   0  0  0  0  0  0  0  0  0  0  0  0
   -1.4371    0.0884    0.2133 C   0  0  0  0  0  0  0  0  0  0  0  0
   -2.4747    0.2943   -0.0115 H   0  0  0  0  0  0  0  0  0  0  0  0
   -0.5719    1.1340    0.5308 C   0  0  0  0  0  0  0  0  0  0  0  0
   -0.9377    2.1517    0.5511 H   0  0  0  0  0  0  0  0  0  0  0  0
   -0.6212   -0.4752    7.2031 C   0  0  0  0  0  0  0  0  0  0  0  0
   -0.7275   -0.3003    6.1308 H   0  0  0  0  0  0  0  0  0  0  0  0
   -1.2729   -1.3045    7.4762 H   0  0  0  0  0  0  0  0  0  0  0  0
    0.8483   -0.7323    7.5472 C   0  0  0  0  0  0  0  0  0  0  0  0
    1.3436   -1.3699    6.8166 H   0  0  0  0  0  0  0  0  0  0  0  0
    0.9116   -1.2325    8.5147 H   0  0  0  0  0  0  0  0  0  0  0  0
    1.4885    0.6731    7.6382 C   0  0  0  0  0  0  0  0  0  0  0  0
    2.1387    0.8658    6.7863 H   0  0  0  0  0  0  0  0  0  0  0  0
    2.1013    0.7623    8.5339 H   0  0  0  0  0  0  0  0  0  0  0  0
    0.3094    1.6723    7.6650 C   0  0  0  0  0  0  0  0  0  0  0  0
    0.1923    2.1313    6.6828 H   0  0  0  0  0  0  0  0  0  0  0  0
    0.4550    2.4738    8.3874 H   0  0  0  0  0  0  0  0  0  0  0  0
   -0.9244    0.8152    7.9607 C   0  0  0  0  0  0  0  0  0  0  0  0
   -1.8553    1.2909    7.6548 H   0  0  0  0  0  0  0  0  0  0  0  0
   -0.9898    0.6059    9.0312 H   0  0  0  0  0  0  0  0  0  0  0  0
  1  2  1  0  0  0  0
  3  1  1  0  0  0  0
  3  4  1  0  0  0  0
  5  3  2  0  0  0  0
  6  5  1  0  0  0  0
  7  9  2  0  0  0  0
  7  5  1  0  0  0  0
  8  7  1  0  0  0  0
  9 11  1  0  0  0  0
 10  9  1  0  0  0  0
 11 12  1  0  0  0  0
 11  1  2  0  0  0  0
 13 15  1  0  0  0  0
 13 16  1  0  0  0  0
 13 25  1  0  0  0  0
 14 13  1  0  0  0  0
 16 19  1  0  0  0  0
 16 18  1  0  0  0  0
 17 16  1  0  0  0  0
 19 22  1  0  0  0  0
 19 21  1  0  0  0  0
 20 19  1  0  0  0  0
 22 25  1  0  0  0  0
 22 24  1  0  0  0  0
 23 22  1  0  0  0  0
 25 27  1  0  0  0  0
 26 25  1  0  0  0  0
M  END
>  <SMILES>
c1ccccc1.C1CCCC1

>  <MoleculeName>
BenzeneCyclopentane200

>  <Distance Scale>
2.0

>  <Energy Value>
-0.19

$$$$
/home/S66X8/2753_07MeOHPeptide150.xyz
 OpenBabel06262409173D

 18 16  0  0  0  0  0  0  0  0999 V2000
   -0.2088   -0.2169   -1.0324 O   0  0  0  0  0  0  0  0  0  0  0  0
    0.7111   -0.3869   -0.7740 H   0  0  0  0  0  0  0  0  0  0  0  0
   -1.0222   -0.7412   -0.0055 C   0  0  0  0  0  0  0  0  0  0  0  0
   -2.0575   -0.5387   -0.2686 H   0  0  0  0  0  0  0  0  0  0  0  0
   -0.9077   -1.8218    0.1085 H   0  0  0  0  0  0  0  0  0  0  0  0
   -0.8246   -0.2755    0.9646 H   0  0  0  0  0  0  0  0  0  0  0  0
    2.9580    1.9118    0.7721 C   0  0  0  0  0  0  0  0  0  0  0  0
    3.4644    2.8732    0.7372 H   0  0  0  0  0  0  0  0  0  0  0  0
    2.5475    1.7657    1.7700 H   0  0  0  0  0  0  0  0  0  0  0  0
    2.1284    1.9023    0.0706 H   0  0  0  0  0  0  0  0  0  0  0  0
    3.8737    0.7569    0.4562 C   0  0  0  0  0  0  0  0  0  0  0  0
    3.4495   -0.3631    0.1711 O   0  0  0  0  0  0  0  0  0  0  0  0
    5.1998    1.0186    0.5154 N   0  0  0  0  0  0  0  0  0  0  0  0
    5.4978    1.9290    0.8131 H   0  0  0  0  0  0  0  0  0  0  0  0
    6.1822   -0.0215    0.2926 C   0  0  0  0  0  0  0  0  0  0  0  0
    5.8257   -0.6725   -0.4996 H   0  0  0  0  0  0  0  0  0  0  0  0
    7.1226    0.4320   -0.0059 H   0  0  0  0  0  0  0  0  0  0  0  0
    6.3417   -0.6261    1.1847 H   0  0  0  0  0  0  0  0  0  0  0  0
  1  2  1  0  0  0  0
  1  3  1  0  0  0  0
  3  5  1  0  0  0  0
  3  6  1  0  0  0  0
  4  3  1  0  0  0  0
  7  9  1  0  0  0  0
  8  7  1  0  0  0  0
 10  7  1  0  0  0  0
 11 13  1  0  0  0  0
 11  7  1  0  0  0  0
 12 11  2  0  0  0  0
 13 14  1  0  0  0  0
 15 13  1  0  0  0  0
 15 18  1  0  0  0  0
 16 15  1  0  0  0  0
 17 15  1  0  0  0  0
M  END
>  <SMILES>
OC.CC(=O)NC

>  <MoleculeName>
MeOHPeptide150

>  <Distance Scale>
1.5

>  <Energy Value>
-3.65

$$$$
/home/S66X8/3216_65PyridineEthyne125.xyz
 OpenBabel06262409173D

 15 14  0  0  0  0  0  0  0  0999 V2000
   -0.0830    0.0007    1.0552 N   0  0  0  0  0  0  0  0  0  0  0  0
   -0.2029   -1.1417    0.3649 C   0  0  0  0  0  0  0  0  0  0  0  0
   -0.0985   -2.0551    0.9374 H   0  0  0  0  0  0  0  0  0  0  0  0
   -0.4468   -1.1918   -1.0045 C   0  0  0  0  0  0  0  0  0  0  0  0
   -0.5336   -2.1459   -1.5042 H   0  0  0  0  0  0  0  0  0  0  0  0
   -0.5747    0.0034   -1.7043 C   0  0  0  0  0  0  0  0  0  0  0  0
   -0.7637    0.0045   -2.7687 H   0  0  0  0  0  0  0  0  0  0  0  0
   -0.4535    1.1972   -1.0009 C   0  0  0  0  0  0  0  0  0  0  0  0
   -0.5456    2.1523   -1.4978 H   0  0  0  0  0  0  0  0  0  0  0  0
   -0.2093    1.1445    0.3684 C   0  0  0  0  0  0  0  0  0  0  0  0
   -0.1102    2.0567    0.9436 H   0  0  0  0  0  0  0  0  0  0  0  0
    0.5508   -0.0079    6.1160 C   0  0  0  0  0  0  0  0  0  0  0  0
    0.6662   -0.0073    7.1710 H   0  0  0  0  0  0  0  0  0  0  0  0
    0.4187   -0.0084    4.9098 C   0  0  0  0  0  0  0  0  0  0  0  0
    0.3006   -0.0082    3.8452 H   0  0  0  0  0  0  0  0  0  0  0  0
  2  3  1  0  0  0  0
  2  1  2  0  0  0  0
  4  2  1  0  0  0  0
  5  4  1  0  0  0  0
  6  4  2  0  0  0  0
  6  8  1  0  0  0  0
  7  6  1  0  0  0  0
  8 10  2  0  0  0  0
  9  8  1  0  0  0  0
 10 11  1  0  0  0  0
 10  1  1  0  0  0  0
 12 13  1  0  0  0  0
 14 12  3  0  0  0  0
 15 14  1  0  0  0  0
M  END
>  <SMILES>
n1ccccc1.C#C

>  <MoleculeName>
PyridineEthyne125

>  <Distance Scale>
1.25

>  <Energy Value>
-2.84

$$$$
/home/S66X8/2847_19MeOHPyridine110.xyz
 OpenBabel06262409173D

 17 16  0  0  0  0  0  0  0  0999 V2000
   -0.6277    0.0875    0.0015 O   0  0  0  0  0  0  0  0  0  0  0  0
    0.3436    0.1223   -0.0006 H   0  0  0  0  0  0  0  0  0  0  0  0
   -0.9779   -1.2786    0.0012 C   0  0  0  0  0  0  0  0  0  0  0  0
   -2.0634   -1.3420    0.0050 H   0  0  0  0  0  0  0  0  0  0  0  0
   -0.6149   -1.8064   -0.8854 H   0  0  0  0  0  0  0  0  0  0  0  0
   -0.6086   -1.8082    0.8842 H   0  0  0  0  0  0  0  0  0  0  0  0
    2.4885    0.0046   -0.0017 N   0  0  0  0  0  0  0  0  0  0  0  0
    3.1849   -0.0199   -1.1465 C   0  0  0  0  0  0  0  0  0  0  0  0
    2.6004    0.0034   -2.0574 H   0  0  0  0  0  0  0  0  0  0  0  0
    4.5745   -0.0696   -1.1951 C   0  0  0  0  0  0  0  0  0  0  0  0
    5.0819   -0.0869   -2.1489 H   0  0  0  0  0  0  0  0  0  0  0  0
    5.2849   -0.0953    0.0005 C   0  0  0  0  0  0  0  0  0  0  0  0
    6.3653   -0.1331    0.0013 H   0  0  0  0  0  0  0  0  0  0  0  0
    4.5727   -0.0703    1.1950 C   0  0  0  0  0  0  0  0  0  0  0  0
    5.0785   -0.0881    2.1495 H   0  0  0  0  0  0  0  0  0  0  0  0
    3.1831   -0.0206    1.1441 C   0  0  0  0  0  0  0  0  0  0  0  0
    2.5971    0.0021    2.0542 H   0  0  0  0  0  0  0  0  0  0  0  0
  2  1  1  0  0  0  0
  3  1  1  0  0  0  0
  3  4  1  0  0  0  0
  3  6  1  0  0  0  0
  5  3  1  0  0  0  0
  7 16  1  0  0  0  0
  8  7  2  0  0  0  0
  9  8  1  0  0  0  0
 10  8  1  0  0  0  0
 10 12  2  0  0  0  0
 11 10  1  0  0  0  0
 12 13  1  0  0  0  0
 12 14  1  0  0  0  0
 14 15  1  0  0  0  0
 16 14  2  0  0  0  0
 16 17  1  0  0  0  0
M  END
>  <SMILES>
OC.n1ccccc1

>  <MoleculeName>
MeOHPyridine110

>  <Distance Scale>
1.1

>  <Energy Value>
-6.88

$$$$
/home/S66X8/2728_04WaterPeptide125.xyz
 OpenBabel06262409173D

 15 13  0  0  0  0  0  0  0  0999 V2000
   -0.3920   -0.3847    0.0761 O   0  0  0  0  0  0  0  0  0  0  0  0
   -0.9115    0.4138    0.1776 H   0  0  0  0  0  0  0  0  0  0  0  0
    0.5249   -0.0685    0.0905 H   0  0  0  0  0  0  0  0  0  0  0  0
    2.7144   -2.1906   -0.2391 C   0  0  0  0  0  0  0  0  0  0  0  0
    3.3643   -3.0517   -0.3721 H   0  0  0  0  0  0  0  0  0  0  0  0
    2.0334   -2.1131   -1.0830 H   0  0  0  0  0  0  0  0  0  0  0  0
    2.1013   -2.3294    0.6479 H   0  0  0  0  0  0  0  0  0  0  0  0
    3.4691   -0.8926   -0.1066 C   0  0  0  0  0  0  0  0  0  0  0  0
    2.8924    0.1827    0.0500 O   0  0  0  0  0  0  0  0  0  0  0  0
    4.8197   -0.9901   -0.1712 N   0  0  0  0  0  0  0  0  0  0  0  0
    5.2207   -1.9006   -0.3007 H   0  0  0  0  0  0  0  0  0  0  0  0
    5.6880    0.1619   -0.0617 C   0  0  0  0  0  0  0  0  0  0  0  0
    5.0515    1.0302    0.0731 H   0  0  0  0  0  0  0  0  0  0  0  0
    6.3536    0.0704    0.7944 H   0  0  0  0  0  0  0  0  0  0  0  0
    6.2824    0.2913   -0.9640 H   0  0  0  0  0  0  0  0  0  0  0  0
  1  3  1  0  0  0  0
  1  2  1  0  0  0  0
  4  8  1  0  0  0  0
  4  7  1  0  0  0  0
  5  4  1  0  0  0  0
  6  4  1  0  0  0  0
  8  9  2  0  0  0  0
 10  8  1  0  0  0  0
 10 12  1  0  0  0  0
 11 10  1  0  0  0  0
 12 13  1  0  0  0  0
 12 14  1  0  0  0  0
 15 12  1  0  0  0  0
M  END
>  <SMILES>
O.CC(=O)NC

>  <MoleculeName>
WaterPeptide125

>  <Distance Scale>
1.25

>  <Energy Value>
-5.99

$$$$
/home/S66X8/2822_16PeptideWater105.xyz
 OpenBabel06262409173D

 15 13  0  0  0  0  0  0  0  0999 V2000
   -0.7243   -0.7049    2.2839 C   0  0  0  0  0  0  0  0  0  0  0  0
    0.3353   -0.6299    2.0532 H   0  0  0  0  0  0  0  0  0  0  0  0
   -0.9517   -1.7120    2.6257 H   0  0  0  0  0  0  0  0  0  0  0  0
   -0.9696   -0.0221    3.0938 H   0  0  0  0  0  0  0  0  0  0  0  0
   -1.6149   -0.3874    1.1041 C   0  0  0  0  0  0  0  0  0  0  0  0
   -2.8373   -0.4150    1.1941 O   0  0  0  0  0  0  0  0  0  0  0  0
   -0.9534   -0.0764   -0.0408 N   0  0  0  0  0  0  0  0  0  0  0  0
    0.0538   -0.0756   -0.0366 H   0  0  0  0  0  0  0  0  0  0  0  0
   -1.6581    0.2501   -1.2586 C   0  0  0  0  0  0  0  0  0  0  0  0
   -2.7204    0.1769   -1.0467 H   0  0  0  0  0  0  0  0  0  0  0  0
   -1.4303    1.2630   -1.5881 H   0  0  0  0  0  0  0  0  0  0  0  0
   -1.4056   -0.4443   -2.0586 H   0  0  0  0  0  0  0  0  0  0  0  0
    2.2351   -0.0573   -0.1627 O   0  0  0  0  0  0  0  0  0  0  0  0
    2.8001   -0.7703   -0.4679 H   0  0  0  0  0  0  0  0  0  0  0  0
    2.8149    0.7069   -0.1388 H   0  0  0  0  0  0  0  0  0  0  0  0
  1  3  1  0  0  0  0
  1  4  1  0  0  0  0
  2  1  1  0  0  0  0
  5  6  2  0  0  0  0
  5  1  1  0  0  0  0
  7  8  1  0  0  0  0
  7  5  1  0  0  0  0
  9 10  1  0  0  0  0
  9  7  1  0  0  0  0
 11  9  1  0  0  0  0
 12  9  1  0  0  0  0
 13 15  1  0  0  0  0
 14 13  1  0  0  0  0
M  END
>  <SMILES>
CC(=O)NC.O

>  <MoleculeName>
PeptideWater105

>  <Distance Scale>
1.05

>  <Energy Value>
-4.98

$$$$
/home/S66X8/2812_15PeptidePeptide095.xyz
 OpenBabel06262409173D

 24 22  0  0  0  0  0  0  0  0999 V2000
   -0.7015   -0.2906    2.4069 C   0  0  0  0  0  0  0  0  0  0  0  0
   -1.1833    0.3956    3.0989 H   0  0  0  0  0  0  0  0  0  0  0  0
    0.3496   -0.0303    2.3078 H   0  0  0  0  0  0  0  0  0  0  0  0
   -0.7941   -1.2916    2.8240 H   0  0  0  0  0  0  0  0  0  0  0  0
   -1.4485   -0.2449    1.0918 C   0  0  0  0  0  0  0  0  0  0  0  0
   -2.6605   -0.4285    1.0343 O   0  0  0  0  0  0  0  0  0  0  0  0
   -0.6701    0.0059    0.0098 N   0  0  0  0  0  0  0  0  0  0  0  0
    0.3267    0.1226    0.1416 H   0  0  0  0  0  0  0  0  0  0  0  0
   -1.2271    0.0898   -1.3200 C   0  0  0  0  0  0  0  0  0  0  0  0
   -2.2920   -0.1065   -1.2409 H   0  0  0  0  0  0  0  0  0  0  0  0
   -1.0778    1.0799   -1.7485 H   0  0  0  0  0  0  0  0  0  0  0  0
   -0.7766   -0.6480   -1.9834 H   0  0  0  0  0  0  0  0  0  0  0  0
    1.9660   -2.3471    0.6805 C   0  0  0  0  0  0  0  0  0  0  0  0
    2.5243   -3.2571    0.4746 H   0  0  0  0  0  0  0  0  0  0  0  0
    1.0373   -2.3536    0.1161 H   0  0  0  0  0  0  0  0  0  0  0  0
    1.7068   -2.3236    1.7374 H   0  0  0  0  0  0  0  0  0  0  0  0
    2.7337   -1.0927    0.3442 C   0  0  0  0  0  0  0  0  0  0  0  0
    2.1885    0.0088    0.2873 O   0  0  0  0  0  0  0  0  0  0  0  0
    4.0604   -1.2615    0.1305 N   0  0  0  0  0  0  0  0  0  0  0  0
    4.4368   -2.1887    0.2072 H   0  0  0  0  0  0  0  0  0  0  0  0
    4.9477   -0.1550   -0.1585 C   0  0  0  0  0  0  0  0  0  0  0  0
    4.3335    0.7358   -0.2383 H   0  0  0  0  0  0  0  0  0  0  0  0
    5.6751   -0.0155    0.6389 H   0  0  0  0  0  0  0  0  0  0  0  0
    5.4727   -0.3150   -1.0976 H   0  0  0  0  0  0  0  0  0  0  0  0
  1  4  1  0  0  0  0
  1  2  1  0  0  0  0
  3  1  1  0  0  0  0
  5  1  1  0  0  0  0
  6  5  2  0  0  0  0
  7  8  1  0  0  0  0
  7  5  1  0  0  0  0
  9 10  1  0  0  0  0
  9  7  1  0  0  0  0
 11  9  1  0  0  0  0
 12  9  1  0  0  0  0
 13 16  1  0  0  0  0
 14 13  1  0  0  0  0
 15 13  1  0  0  0  0
 17 13  1  0  0  0  0
 18 17  2  0  0  0  0
 19 20  1  0  0  0  0
 19 17  1  0  0  0  0
 21 19  1  0  0  0  0
 21 23  1  0  0  0  0
 22 21  1  0  0  0  0
 24 21  1  0  0  0  0
M  END
>  <SMILES>
CC(=O)NC.CC(=O)NC

>  <MoleculeName>
PeptidePeptide095

>  <Distance Scale>
0.95

>  <Energy Value>
-8.53

$$$$
/home/S66X8/3212_65PyridineEthyne095.xyz
 OpenBabel06262409173D

 15 14  0  0  0  0  0  0  0  0999 V2000
   -0.0830    0.0007    1.0552 N   0  0  0  0  0  0  0  0  0  0  0  0
   -0.2029   -1.1417    0.3649 C   0  0  0  0  0  0  0  0  0  0  0  0
   -0.0985   -2.0551    0.9374 H   0  0  0  0  0  0  0  0  0  0  0  0
   -0.4468   -1.1918   -1.0045 C   0  0  0  0  0  0  0  0  0  0  0  0
   -0.5336   -2.1459   -1.5042 H   0  0  0  0  0  0  0  0  0  0  0  0
   -0.5747    0.0034   -1.7043 C   0  0  0  0  0  0  0  0  0  0  0  0
   -0.7637    0.0045   -2.7687 H   0  0  0  0  0  0  0  0  0  0  0  0
   -0.4535    1.1972   -1.0009 C   0  0  0  0  0  0  0  0  0  0  0  0
   -0.5456    2.1523   -1.4978 H   0  0  0  0  0  0  0  0  0  0  0  0
   -0.2093    1.1445    0.3684 C   0  0  0  0  0  0  0  0  0  0  0  0
   -0.1102    2.0567    0.9436 H   0  0  0  0  0  0  0  0  0  0  0  0
    0.4587   -0.0058    5.4464 C   0  0  0  0  0  0  0  0  0  0  0  0
    0.5741   -0.0052    6.5014 H   0  0  0  0  0  0  0  0  0  0  0  0
    0.3267   -0.0063    4.2402 C   0  0  0  0  0  0  0  0  0  0  0  0
    0.2085   -0.0060    3.1757 H   0  0  0  0  0  0  0  0  0  0  0  0
  2  3  1  0  0  0  0
  2  1  2  0  0  0  0
  4  2  1  0  0  0  0
  5  4  1  0  0  0  0
  6  4  2  0  0  0  0
  6  8  1  0  0  0  0
  7  6  1  0  0  0  0
  8 10  2  0  0  0  0
  9  8  1  0  0  0  0
 10 11  1  0  0  0  0
 10  1  1  0  0  0  0
 12 13  1  0  0  0  0
 14 12  3  0  0  0  0
 15 14  1  0  0  0  0
M  END
>  <SMILES>
n1ccccc1.C#C

>  <MoleculeName>
PyridineEthyne095

>  <Distance Scale>
0.95

>  <Energy Value>
-3.91

$$$$
/home/S66X8/3073_47BenzeneBenzeneTS150.xyz
 OpenBabel06262409173D

 24 24  0  0  0  0  0  0  0  0999 V2000
    0.7292    1.1131    0.3267 C   0  0  0  0  0  0  0  0  0  0  0  0
    1.3032    2.0142    0.1592 H   0  0  0  0  0  0  0  0  0  0  0  0
    1.3751   -0.1194    0.4128 C   0  0  0  0  0  0  0  0  0  0  0  0
    2.4505   -0.1746    0.3133 H   0  0  0  0  0  0  0  0  0  0  0  0
    0.6350   -1.2806    0.6294 C   0  0  0  0  0  0  0  0  0  0  0  0
    1.1363   -2.2360    0.7002 H   0  0  0  0  0  0  0  0  0  0  0  0
   -0.7510   -1.2097    0.7579 C   0  0  0  0  0  0  0  0  0  0  0  0
   -1.3245   -2.1114    0.9242 H   0  0  0  0  0  0  0  0  0  0  0  0
   -1.3970    0.0227    0.6731 C   0  0  0  0  0  0  0  0  0  0  0  0
   -2.4724    0.0785    0.7740 H   0  0  0  0  0  0  0  0  0  0  0  0
   -0.6569    1.1843    0.4583 C   0  0  0  0  0  0  0  0  0  0  0  0
   -1.1578    2.1406    0.3951 H   0  0  0  0  0  0  0  0  0  0  0  0
    0.3289    0.4031    5.5475 C   0  0  0  0  0  0  0  0  0  0  0  0
    0.4510    0.6286    4.4971 H   0  0  0  0  0  0  0  0  0  0  0  0
   -0.7622   -0.3518    5.9748 C   0  0  0  0  0  0  0  0  0  0  0  0
   -1.4827   -0.7083    5.2511 H   0  0  0  0  0  0  0  0  0  0  0  0
   -0.9229   -0.6459    7.3278 C   0  0  0  0  0  0  0  0  0  0  0  0
   -1.7700   -1.2319    7.6580 H   0  0  0  0  0  0  0  0  0  0  0  0
    0.0090   -0.1849    8.2563 C   0  0  0  0  0  0  0  0  0  0  0  0
   -0.1149   -0.4129    9.3063 H   0  0  0  0  0  0  0  0  0  0  0  0
    1.1005    0.5702    7.8310 C   0  0  0  0  0  0  0  0  0  0  0  0
    1.8237    0.9280    8.5514 H   0  0  0  0  0  0  0  0  0  0  0  0
    1.2593    0.8637    6.4775 C   0  0  0  0  0  0  0  0  0  0  0  0
    2.1066    1.4498    6.1475 H   0  0  0  0  0  0  0  0  0  0  0  0
  1  3  2  0  0  0  0
  1 11  1  0  0  0  0
  2  1  1  0  0  0  0
  3  5  1  0  0  0  0
  4  3  1  0  0  0  0
  5  6  1  0  0  0  0
  5  7  2  0  0  0  0
  7  8  1  0  0  0  0
  9  7  1  0  0  0  0
  9 10  1  0  0  0  0
 11  9  2  0  0  0  0
 12 11  1  0  0  0  0
 13 15  2  0  0  0  0
 13 23  1  0  0  0  0
 14 13  1  0  0  0  0
 15 17  1  0  0  0  0
 16 15  1  0  0  0  0
 17 18  1  0  0  0  0
 17 19  2  0  0  0  0
 19 20  1  0  0  0  0
 21 19  1  0  0  0  0
 21 22  1  0  0  0  0
 23 21  2  0  0  0  0
 24 23  1  0  0  0  0
M  END
>  <SMILES>
c1ccccc1.c1ccccc1

>  <MoleculeName>
BenzeneBenzeneTS150

>  <Distance Scale>
1.5

>  <Energy Value>
-0.83

$$$$
/home/S66X8/3103_51EthyneEthyneTS110.xyz
 OpenBabel06262409173D

  8  6  0  0  0  0  0  0  0  0999 V2000
   -0.6017   -0.0286    0.3849 C   0  0  0  0  0  0  0  0  0  0  0  0
   -1.6637   -0.0285    0.3790 H   0  0  0  0  0  0  0  0  0  0  0  0
    0.6101   -0.0287    0.3882 C   0  0  0  0  0  0  0  0  0  0  0  0
    1.6721   -0.0288    0.3880 H   0  0  0  0  0  0  0  0  0  0  0  0
   -0.0083    0.1111    4.4477 C   0  0  0  0  0  0  0  0  0  0  0  0
   -0.0049    0.0774    3.3844 H   0  0  0  0  0  0  0  0  0  0  0  0
   -0.0122    0.1494    5.6592 C   0  0  0  0  0  0  0  0  0  0  0  0
   -0.0155    0.1828    6.7201 H   0  0  0  0  0  0  0  0  0  0  0  0
  1  3  3  0  0  0  0
  2  1  1  0  0  0  0
  4  3  1  0  0  0  0
  5  7  3  0  0  0  0
  6  5  1  0  0  0  0
  7  8  1  0  0  0  0
M  END
>  <SMILES>
C#C.C#C

>  <MoleculeName>
EthyneEthyneTS110

>  <Distance Scale>
1.1

>  <Energy Value>
-1.35

$$$$
/home/S66X8/3015_40BenzeneNeopentane110.xyz
 OpenBabel06262409173D

 29 28  0  0  0  0  0  0  0  0999 V2000
    0.3120    0.5610    0.4967 C   0  0  0  0  0  0  0  0  0  0  0  0
    0.7421    1.5534    0.4816 H   0  0  0  0  0  0  0  0  0  0  0  0
    1.1422   -0.5581    0.5361 C   0  0  0  0  0  0  0  0  0  0  0  0
    2.2165   -0.4343    0.5524 H   0  0  0  0  0  0  0  0  0  0  0  0
    0.5878   -1.8367    0.5541 C   0  0  0  0  0  0  0  0  0  0  0  0
    1.2319   -2.7048    0.5852 H   0  0  0  0  0  0  0  0  0  0  0  0
   -0.7967   -1.9964    0.5330 C   0  0  0  0  0  0  0  0  0  0  0  0
   -1.2268   -2.9884    0.5486 H   0  0  0  0  0  0  0  0  0  0  0  0
   -1.6269   -0.8775    0.4942 C   0  0  0  0  0  0  0  0  0  0  0  0
   -2.7011   -1.0013    0.4798 H   0  0  0  0  0  0  0  0  0  0  0  0
   -1.0727    0.4012    0.4760 C   0  0  0  0  0  0  0  0  0  0  0  0
   -1.7170    1.2694    0.4459 H   0  0  0  0  0  0  0  0  0  0  0  0
    0.1579    0.4961    5.1470 C   0  0  0  0  0  0  0  0  0  0  0  0
    1.6041    0.6748    4.6920 C   0  0  0  0  0  0  0  0  0  0  0  0
    2.0200    1.6081    5.0754 H   0  0  0  0  0  0  0  0  0  0  0  0
    2.2275   -0.1458    5.0509 H   0  0  0  0  0  0  0  0  0  0  0  0
    1.6647    0.6942    3.6031 H   0  0  0  0  0  0  0  0  0  0  0  0
    0.1035    0.4647    6.6718 C   0  0  0  0  0  0  0  0  0  0  0  0
   -0.9223    0.3373    7.0209 H   0  0  0  0  0  0  0  0  0  0  0  0
    0.6989   -0.3610    7.0644 H   0  0  0  0  0  0  0  0  0  0  0  0
    0.4918    1.3926    7.0948 H   0  0  0  0  0  0  0  0  0  0  0  0
   -0.3915   -0.8134    4.5867 C   0  0  0  0  0  0  0  0  0  0  0  0
   -1.4264   -0.9637    4.8994 H   0  0  0  0  0  0  0  0  0  0  0  0
    0.1949   -1.6624    4.9425 H   0  0  0  0  0  0  0  0  0  0  0  0
   -0.3627   -0.8139    3.4964 H   0  0  0  0  0  0  0  0  0  0  0  0
   -0.6835    1.6606    4.6308 C   0  0  0  0  0  0  0  0  0  0  0  0
   -0.6620    1.6967    3.5408 H   0  0  0  0  0  0  0  0  0  0  0  0
   -1.7233    1.5569    4.9453 H   0  0  0  0  0  0  0  0  0  0  0  0
   -0.3079    2.6113    5.0129 H   0  0  0  0  0  0  0  0  0  0  0  0
  1  3  1  0  0  0  0
  2  1  1  0  0  0  0
  3  4  1  0  0  0  0
  3  5  2  0  0  0  0
  5  6  1  0  0  0  0
  7  8  1  0  0  0  0
  7  5  1  0  0  0  0
  9  7  2  0  0  0  0
 10  9  1  0  0  0  0
 11  9  1  0  0  0  0
 11  1  2  0  0  0  0
 12 11  1  0  0  0  0
 13 18  1  0  0  0  0
 14 16  1  0  0  0  0
 14 15  1  0  0  0  0
 14 13  1  0  0  0  0
 17 14  1  0  0  0  0
 18 19  1  0  0  0  0
 18 20  1  0  0  0  0
 18 21  1  0  0  0  0
 22 23  1  0  0  0  0
 22 24  1  0  0  0  0
 22 13  1  0  0  0  0
 25 22  1  0  0  0  0
 26 28  1  0  0  0  0
 26 29  1  0  0  0  0
 26 13  1  0  0  0  0
 27 26  1  0  0  0  0
M  END
>  <SMILES>
c1ccccc1.C(C)(C)(C)C

>  <MoleculeName>
BenzeneNeopentane110

>  <Distance Scale>
1.1

>  <Energy Value>
-2.57

$$$$
/home/S66X8/2991_37CyclopentaneNeopentane110.xyz
 OpenBabel06262409173D

 32 31  0  0  0  0  0  0  0  0999 V2000
    0.7999   -1.0221    0.6877 C   0  0  0  0  0  0  0  0  0  0  0  0
    0.8536   -1.1221   -0.3980 H   0  0  0  0  0  0  0  0  0  0  0  0
    1.4914   -1.7442    1.1197 H   0  0  0  0  0  0  0  0  0  0  0  0
    1.1169    0.4250    1.0997 C   0  0  0  0  0  0  0  0  0  0  0  0
    1.8381    0.8901    0.4305 H   0  0  0  0  0  0  0  0  0  0  0  0
    1.5556    0.4398    2.0971 H   0  0  0  0  0  0  0  0  0  0  0  0
   -0.2446    1.1657    1.1030 C   0  0  0  0  0  0  0  0  0  0  0  0
   -0.2581    2.0009    0.4053 H   0  0  0  0  0  0  0  0  0  0  0  0
   -0.4488    1.5770    2.0910 H   0  0  0  0  0  0  0  0  0  0  0  0
   -1.2987    0.1038    0.7393 C   0  0  0  0  0  0  0  0  0  0  0  0
   -1.4736    0.1052   -0.3380 H   0  0  0  0  0  0  0  0  0  0  0  0
   -2.2567    0.2780    1.2272 H   0  0  0  0  0  0  0  0  0  0  0  0
   -0.6469   -1.2201    1.1363 C   0  0  0  0  0  0  0  0  0  0  0  0
   -1.1244   -2.0876    0.6830 H   0  0  0  0  0  0  0  0  0  0  0  0
   -0.6860   -1.3453    2.2202 H   0  0  0  0  0  0  0  0  0  0  0  0
    0.0567    0.1075    5.9231 C   0  0  0  0  0  0  0  0  0  0  0  0
   -0.0396   -0.0445    7.4387 C   0  0  0  0  0  0  0  0  0  0  0  0
    0.9529   -0.0600    7.8911 H   0  0  0  0  0  0  0  0  0  0  0  0
   -0.5986    0.7833    7.8772 H   0  0  0  0  0  0  0  0  0  0  0  0
   -0.5468   -0.9732    7.7041 H   0  0  0  0  0  0  0  0  0  0  0  0
    0.7707    1.4144    5.5875 C   0  0  0  0  0  0  0  0  0  0  0  0
    0.8523    1.5479    4.5078 H   0  0  0  0  0  0  0  0  0  0  0  0
    0.2273    2.2691    5.9930 H   0  0  0  0  0  0  0  0  0  0  0  0
    1.7784    1.4251    6.0057 H   0  0  0  0  0  0  0  0  0  0  0  0
   -1.3483    0.1274    5.3258 C   0  0  0  0  0  0  0  0  0  0  0  0
   -1.3114    0.2446    4.2419 H   0  0  0  0  0  0  0  0  0  0  0  0
   -1.9306    0.9548    5.7341 H   0  0  0  0  0  0  0  0  0  0  0  0
   -1.8782   -0.8004    5.5471 H   0  0  0  0  0  0  0  0  0  0  0  0
    0.8446   -1.0659    5.3457 C   0  0  0  0  0  0  0  0  0  0  0  0
    0.3494   -2.0129    5.5660 H   0  0  0  0  0  0  0  0  0  0  0  0
    0.9394   -0.9788    4.2626 H   0  0  0  0  0  0  0  0  0  0  0  0
    1.8493   -1.1033    5.7695 H   0  0  0  0  0  0  0  0  0  0  0  0
  1  4  1  0  0  0  0
  1  3  1  0  0  0  0
  1 13  1  0  0  0  0
  2  1  1  0  0  0  0
  4  7  1  0  0  0  0
  4  6  1  0  0  0  0
  5  4  1  0  0  0  0
  7  9  1  0  0  0  0
  8  7  1  0  0  0  0
 10  7  1  0  0  0  0
 10 13  1  0  0  0  0
 10 12  1  0  0  0  0
 11 10  1  0  0  0  0
 13 15  1  0  0  0  0
 14 13  1  0  0  0  0
 16 17  1  0  0  0  0
 17 20  1  0  0  0  0
 17 19  1  0  0  0  0
 17 18  1  0  0  0  0
 21 16  1  0  0  0  0
 21 23  1  0  0  0  0
 21 24  1  0  0  0  0
 22 21  1  0  0  0  0
 25 28  1  0  0  0  0
 25 27  1  0  0  0  0
 25 16  1  0  0  0  0
 26 25  1  0  0  0  0
 29 30  1  0  0  0  0
 29 32  1  0  0  0  0
 29 16  1  0  0  0  0
 31 29  1  0  0  0  0
M  END
>  <SMILES>
C1CCCC1.C(C)(C)(C)C

>  <MoleculeName>
CyclopentaneNeopentane110

>  <Distance Scale>
1.1

>  <Energy Value>
-2.14

$$$$
/home/S66X8/2816_15PeptidePeptide125.xyz
 OpenBabel06262409173D

 24 22  0  0  0  0  0  0  0  0999 V2000
   -0.7015   -0.2906    2.4069 C   0  0  0  0  0  0  0  0  0  0  0  0
   -1.1833    0.3956    3.0989 H   0  0  0  0  0  0  0  0  0  0  0  0
    0.3496   -0.0303    2.3078 H   0  0  0  0  0  0  0  0  0  0  0  0
   -0.7941   -1.2916    2.8240 H   0  0  0  0  0  0  0  0  0  0  0  0
   -1.4485   -0.2449    1.0918 C   0  0  0  0  0  0  0  0  0  0  0  0
   -2.6605   -0.4285    1.0343 O   0  0  0  0  0  0  0  0  0  0  0  0
   -0.6701    0.0059    0.0098 N   0  0  0  0  0  0  0  0  0  0  0  0
    0.3267    0.1226    0.1416 H   0  0  0  0  0  0  0  0  0  0  0  0
   -1.2271    0.0898   -1.3200 C   0  0  0  0  0  0  0  0  0  0  0  0
   -2.2920   -0.1065   -1.2409 H   0  0  0  0  0  0  0  0  0  0  0  0
   -1.0778    1.0799   -1.7485 H   0  0  0  0  0  0  0  0  0  0  0  0
   -0.7766   -0.6480   -1.9834 H   0  0  0  0  0  0  0  0  0  0  0  0
    2.5539   -2.3830    0.7265 C   0  0  0  0  0  0  0  0  0  0  0  0
    3.1122   -3.2930    0.5206 H   0  0  0  0  0  0  0  0  0  0  0  0
    1.6253   -2.3895    0.1621 H   0  0  0  0  0  0  0  0  0  0  0  0
    2.2947   -2.3596    1.7834 H   0  0  0  0  0  0  0  0  0  0  0  0
    3.3216   -1.1286    0.3902 C   0  0  0  0  0  0  0  0  0  0  0  0
    2.7764   -0.0272    0.3333 O   0  0  0  0  0  0  0  0  0  0  0  0
    4.6483   -1.2974    0.1765 N   0  0  0  0  0  0  0  0  0  0  0  0
    5.0247   -2.2246    0.2532 H   0  0  0  0  0  0  0  0  0  0  0  0
    5.5356   -0.1909   -0.1125 C   0  0  0  0  0  0  0  0  0  0  0  0
    4.9214    0.6999   -0.1923 H   0  0  0  0  0  0  0  0  0  0  0  0
    6.2630   -0.0515    0.6849 H   0  0  0  0  0  0  0  0  0  0  0  0
    6.0606   -0.3509   -1.0516 H   0  0  0  0  0  0  0  0  0  0  0  0
  1  4  1  0  0  0  0
  1  2  1  0  0  0  0
  3  1  1  0  0  0  0
  5  1  1  0  0  0  0
  6  5  2  0  0  0  0
  7  8  1  0  0  0  0
  7  5  1  0  0  0  0
  9 10  1  0  0  0  0
  9  7  1  0  0  0  0
 11  9  1  0  0  0  0
 12  9  1  0  0  0  0
 13 16  1  0  0  0  0
 14 13  1  0  0  0  0
 15 13  1  0  0  0  0
 17 13  1  0  0  0  0
 18 17  2  0  0  0  0
 19 20  1  0  0  0  0
 19 17  1  0  0  0  0
 21 19  1  0  0  0  0
 21 23  1  0  0  0  0
 22 21  1  0  0  0  0
 24 21  1  0  0  0  0
M  END
>  <SMILES>
CC(=O)NC.CC(=O)NC

>  <MoleculeName>
PeptidePeptide125

>  <Distance Scale>
1.25

>  <Energy Value>
-6.66

$$$$
/home/S66X8/2850_19MeOHPyridine200.xyz
 OpenBabel06262409173D

 17 16  0  0  0  0  0  0  0  0999 V2000
   -0.6277    0.0875    0.0015 O   0  0  0  0  0  0  0  0  0  0  0  0
    0.3436    0.1223   -0.0006 H   0  0  0  0  0  0  0  0  0  0  0  0
   -0.9779   -1.2786    0.0012 C   0  0  0  0  0  0  0  0  0  0  0  0
   -2.0634   -1.3420    0.0050 H   0  0  0  0  0  0  0  0  0  0  0  0
   -0.6149   -1.8064   -0.8854 H   0  0  0  0  0  0  0  0  0  0  0  0
   -0.6086   -1.8082    0.8842 H   0  0  0  0  0  0  0  0  0  0  0  0
    4.2434   -0.0918   -0.0027 N   0  0  0  0  0  0  0  0  0  0  0  0
    4.9398   -0.1162   -1.1474 C   0  0  0  0  0  0  0  0  0  0  0  0
    4.3553   -0.0930   -2.0584 H   0  0  0  0  0  0  0  0  0  0  0  0
    6.3294   -0.1659   -1.1961 C   0  0  0  0  0  0  0  0  0  0  0  0
    6.8368   -0.1832   -2.1499 H   0  0  0  0  0  0  0  0  0  0  0  0
    7.0398   -0.1917   -0.0005 C   0  0  0  0  0  0  0  0  0  0  0  0
    8.1201   -0.2294    0.0004 H   0  0  0  0  0  0  0  0  0  0  0  0
    6.3275   -0.1666    1.1941 C   0  0  0  0  0  0  0  0  0  0  0  0
    6.8333   -0.1845    2.1486 H   0  0  0  0  0  0  0  0  0  0  0  0
    4.9380   -0.1169    1.1431 C   0  0  0  0  0  0  0  0  0  0  0  0
    4.3520   -0.0942    2.0532 H   0  0  0  0  0  0  0  0  0  0  0  0
  2  1  1  0  0  0  0
  3  1  1  0  0  0  0
  3  4  1  0  0  0  0
  3  6  1  0  0  0  0
  5  3  1  0  0  0  0
  7 16  1  0  0  0  0
  8  7  2  0  0  0  0
  9  8  1  0  0  0  0
 10  8  1  0  0  0  0
 10 12  2  0  0  0  0
 11 10  1  0  0  0  0
 12 13  1  0  0  0  0
 12 14  1  0  0  0  0
 14 15  1  0  0  0  0
 16 14  2  0  0  0  0
 16 17  1  0  0  0  0
M  END
>  <SMILES>
OC.n1ccccc1

>  <MoleculeName>
MeOHPyridine200

>  <Distance Scale>
2.0

>  <Energy Value>
-1.33

$$$$
/home/S66X8/2813_15PeptidePeptide100.xyz
 OpenBabel06262409173D

 24 22  0  0  0  0  0  0  0  0999 V2000
   -0.7015   -0.2906    2.4069 C   0  0  0  0  0  0  0  0  0  0  0  0
   -1.1833    0.3956    3.0989 H   0  0  0  0  0  0  0  0  0  0  0  0
    0.3496   -0.0303    2.3078 H   0  0  0  0  0  0  0  0  0  0  0  0
   -0.7941   -1.2916    2.8240 H   0  0  0  0  0  0  0  0  0  0  0  0
   -1.4485   -0.2449    1.0918 C   0  0  0  0  0  0  0  0  0  0  0  0
   -2.6605   -0.4285    1.0343 O   0  0  0  0  0  0  0  0  0  0  0  0
   -0.6701    0.0059    0.0098 N   0  0  0  0  0  0  0  0  0  0  0  0
    0.3267    0.1226    0.1416 H   0  0  0  0  0  0  0  0  0  0  0  0
   -1.2271    0.0898   -1.3200 C   0  0  0  0  0  0  0  0  0  0  0  0
   -2.2920   -0.1065   -1.2409 H   0  0  0  0  0  0  0  0  0  0  0  0
   -1.0778    1.0799   -1.7485 H   0  0  0  0  0  0  0  0  0  0  0  0
   -0.7766   -0.6480   -1.9834 H   0  0  0  0  0  0  0  0  0  0  0  0
    2.0639   -2.3531    0.6881 C   0  0  0  0  0  0  0  0  0  0  0  0
    2.6221   -3.2631    0.4822 H   0  0  0  0  0  0  0  0  0  0  0  0
    1.1352   -2.3596    0.1238 H   0  0  0  0  0  0  0  0  0  0  0  0
    1.8047   -2.3296    1.7451 H   0  0  0  0  0  0  0  0  0  0  0  0
    2.8316   -1.0986    0.3519 C   0  0  0  0  0  0  0  0  0  0  0  0
    2.2864    0.0028    0.2949 O   0  0  0  0  0  0  0  0  0  0  0  0
    4.1583   -1.2675    0.1381 N   0  0  0  0  0  0  0  0  0  0  0  0
    4.5346   -2.1947    0.2149 H   0  0  0  0  0  0  0  0  0  0  0  0
    5.0456   -0.1610   -0.1508 C   0  0  0  0  0  0  0  0  0  0  0  0
    4.4314    0.7298   -0.2306 H   0  0  0  0  0  0  0  0  0  0  0  0
    5.7730   -0.0215    0.6466 H   0  0  0  0  0  0  0  0  0  0  0  0
    5.5705   -0.3210   -1.0899 H   0  0  0  0  0  0  0  0  0  0  0  0
  1  4  1  0  0  0  0
  1  2  1  0  0  0  0
  3  1  1  0  0  0  0
  5  1  1  0  0  0  0
  6  5  2  0  0  0  0
  7  8  1  0  0  0  0
  7  5  1  0  0  0  0
  9 10  1  0  0  0  0
  9  7  1  0  0  0  0
 11  9  1  0  0  0  0
 12  9  1  0  0  0  0
 13 16  1  0  0  0  0
 14 13  1  0  0  0  0
 15 13  1  0  0  0  0
 17 13  1  0  0  0  0
 18 17  2  0  0  0  0
 19 20  1  0  0  0  0
 19 17  1  0  0  0  0
 21 19  1  0  0  0  0
 21 23  1  0  0  0  0
 22 21  1  0  0  0  0
 24 21  1  0  0  0  0
M  END
>  <SMILES>
CC(=O)NC.CC(=O)NC

>  <MoleculeName>
PeptidePeptide100

>  <Distance Scale>
1.0

>  <Energy Value>
-8.62

$$$$
/home/S66X8/3048_44EthenePentane125.xyz
 OpenBabel06262409173D

 23 21  0  0  0  0  0  0  0  0999 V2000
    0.6664    0.1838    0.4197 C   0  0  0  0  0  0  0  0  0  0  0  0
    1.2289   -0.3299    1.1863 H   0  0  0  0  0  0  0  0  0  0  0  0
    1.2280    0.6972   -0.3476 H   0  0  0  0  0  0  0  0  0  0  0  0
   -0.6660    0.1830    0.4196 C   0  0  0  0  0  0  0  0  0  0  0  0
   -1.2279   -0.3315    1.1861 H   0  0  0  0  0  0  0  0  0  0  0  0
   -1.2282    0.6956   -0.3477 H   0  0  0  0  0  0  0  0  0  0  0  0
   -2.5328   -0.4450    4.9347 C   0  0  0  0  0  0  0  0  0  0  0  0
   -2.5623   -1.0580    4.0335 H   0  0  0  0  0  0  0  0  0  0  0  0
   -2.5690   -1.1192    5.7903 H   0  0  0  0  0  0  0  0  0  0  0  0
   -3.4340    0.1660    4.9519 H   0  0  0  0  0  0  0  0  0  0  0  0
   -1.2714    0.4077    4.9705 C   0  0  0  0  0  0  0  0  0  0  0  0
   -1.2718    1.0278    5.8699 H   0  0  0  0  0  0  0  0  0  0  0  0
   -1.2630    1.0946    4.1214 H   0  0  0  0  0  0  0  0  0  0  0  0
   -0.0001   -0.4299    4.9435 C   0  0  0  0  0  0  0  0  0  0  0  0
   -0.0003   -1.1165    5.7954 H   0  0  0  0  0  0  0  0  0  0  0  0
    0.0000   -1.0574    4.0469 H   0  0  0  0  0  0  0  0  0  0  0  0
    1.2711    0.4077    4.9710 C   0  0  0  0  0  0  0  0  0  0  0  0
    1.2714    1.0275    5.8704 H   0  0  0  0  0  0  0  0  0  0  0  0
    1.2629    1.0948    4.1220 H   0  0  0  0  0  0  0  0  0  0  0  0
    2.5326   -0.4450    4.9351 C   0  0  0  0  0  0  0  0  0  0  0  0
    2.5622   -1.0578    4.0338 H   0  0  0  0  0  0  0  0  0  0  0  0
    3.4337    0.1659    4.9527 H   0  0  0  0  0  0  0  0  0  0  0  0
    2.5685   -1.1194    5.7906 H   0  0  0  0  0  0  0  0  0  0  0  0
  1  2  1  0  0  0  0
  3  1  1  0  0  0  0
  4  1  2  0  0  0  0
  4  5  1  0  0  0  0
  6  4  1  0  0  0  0
  7 10  1  0  0  0  0
  7 11  1  0  0  0  0
  7  9  1  0  0  0  0
  8  7  1  0  0  0  0
 11 12  1  0  0  0  0
 13 11  1  0  0  0  0
 14 11  1  0  0  0  0
 14 17  1  0  0  0  0
 14 15  1  0  0  0  0
 16 14  1  0  0  0  0
 17 18  1  0  0  0  0
 19 17  1  0  0  0  0
 20 22  1  0  0  0  0
 20 17  1  0  0  0  0
 20 23  1  0  0  0  0
 21 20  1  0  0  0  0
M  END
>  <SMILES>
C=C.CCCCC

>  <MoleculeName>
EthenePentane125

>  <Distance Scale>
1.25

>  <Energy Value>
-1.09

$$$$
/home/S66X8/3225_66MeNH2Pyridine150.xyz
 OpenBabel06262409173D

 18 17  0  0  0  0  0  0  0  0999 V2000
   -0.5411    0.0296   -0.2090 N   0  0  0  0  0  0  0  0  0  0  0  0
    0.0556   -0.7861   -0.1303 H   0  0  0  0  0  0  0  0  0  0  0  0
   -1.4697   -0.2747    0.0531 H   0  0  0  0  0  0  0  0  0  0  0  0
   -0.0788    1.0424    0.7385 C   0  0  0  0  0  0  0  0  0  0  0  0
   -0.7202    1.9194    0.6720 H   0  0  0  0  0  0  0  0  0  0  0  0
   -0.0508    0.7238    1.7855 H   0  0  0  0  0  0  0  0  0  0  0  0
    0.9264    1.3566    0.4620 H   0  0  0  0  0  0  0  0  0  0  0  0
    3.5103   -1.4973    0.1122 N   0  0  0  0  0  0  0  0  0  0  0  0
    3.8487   -0.6850   -0.8996 C   0  0  0  0  0  0  0  0  0  0  0  0
    3.3061   -0.8295   -1.8249 H   0  0  0  0  0  0  0  0  0  0  0  0
    4.8200    0.3071   -0.7992 C   0  0  0  0  0  0  0  0  0  0  0  0
    5.0449    0.9315   -1.6520 H   0  0  0  0  0  0  0  0  0  0  0  0
    5.4809    0.4767    0.4131 C   0  0  0  0  0  0  0  0  0  0  0  0
    6.2387    1.2389    0.5295 H   0  0  0  0  0  0  0  0  0  0  0  0
    5.1408   -0.3583    1.4722 C   0  0  0  0  0  0  0  0  0  0  0  0
    5.6233   -0.2678    2.4349 H   0  0  0  0  0  0  0  0  0  0  0  0
    4.1570   -1.3231    1.2730 C   0  0  0  0  0  0  0  0  0  0  0  0
    3.8709   -1.9868    2.0796 H   0  0  0  0  0  0  0  0  0  0  0  0
  1  2  1  0  0  0  0
  1  3  1  0  0  0  0
  1  4  1  0  0  0  0
  4  6  1  0  0  0  0
  5  4  1  0  0  0  0
  7  4  1  0  0  0  0
  8 17  1  0  0  0  0
  9 11  1  0  0  0  0
  9  8  2  0  0  0  0
 10  9  1  0  0  0  0
 11 13  2  0  0  0  0
 12 11  1  0  0  0  0
 13 14  1  0  0  0  0
 13 15  1  0  0  0  0
 15 16  1  0  0  0  0
 17 15  2  0  0  0  0
 17 18  1  0  0  0  0
M  END
>  <SMILES>
NC.n1ccccc1

>  <MoleculeName>
MeNH2Pyridine150

>  <Distance Scale>
1.5

>  <Energy Value>
-1.5

$$$$
/home/S66X8/3140_56BenzeneMeNH2NHpi095.xyz
 OpenBabel06262409173D

 19 18  0  0  0  0  0  0  0  0999 V2000
    0.6923    1.0883    0.3248 C   0  0  0  0  0  0  0  0  0  0  0  0
    1.2819    1.9919    0.2525 H   0  0  0  0  0  0  0  0  0  0  0  0
    1.3182   -0.1569    0.2869 C   0  0  0  0  0  0  0  0  0  0  0  0
    2.3931   -0.2195    0.1884 H   0  0  0  0  0  0  0  0  0  0  0  0
    0.5580   -1.3220    0.3814 C   0  0  0  0  0  0  0  0  0  0  0  0
    1.0439   -2.2876    0.3576 H   0  0  0  0  0  0  0  0  0  0  0  0
   -0.8276   -1.2414    0.5117 C   0  0  0  0  0  0  0  0  0  0  0  0
   -1.4167   -2.1453    0.5853 H   0  0  0  0  0  0  0  0  0  0  0  0
   -1.4534    0.0037    0.5484 C   0  0  0  0  0  0  0  0  0  0  0  0
   -2.5282    0.0657    0.6498 H   0  0  0  0  0  0  0  0  0  0  0  0
   -0.6935    1.1684    0.4562 C   0  0  0  0  0  0  0  0  0  0  0  0
   -1.1787    2.1344    0.4857 H   0  0  0  0  0  0  0  0  0  0  0  0
    0.2884   -0.2104    3.7233 N   0  0  0  0  0  0  0  0  0  0  0  0
    0.4230   -0.1664    2.7202 H   0  0  0  0  0  0  0  0  0  0  0  0
    0.4299    0.7348    4.0557 H   0  0  0  0  0  0  0  0  0  0  0  0
   -1.0877   -0.6168    4.0007 C   0  0  0  0  0  0  0  0  0  0  0  0
   -1.2456   -0.6453    5.0773 H   0  0  0  0  0  0  0  0  0  0  0  0
   -1.8590    0.0236    3.5606 H   0  0  0  0  0  0  0  0  0  0  0  0
   -1.2424   -1.6263    3.6251 H   0  0  0  0  0  0  0  0  0  0  0  0
  1 11  1  0  0  0  0
  2  1  1  0  0  0  0
  3  1  2  0  0  0  0
  3  5  1  0  0  0  0
  4  3  1  0  0  0  0
  5  7  2  0  0  0  0
  6  5  1  0  0  0  0
  7  9  1  0  0  0  0
  7  8  1  0  0  0  0
  9 10  1  0  0  0  0
 11 12  1  0  0  0  0
 11  9  2  0  0  0  0
 13 16  1  0  0  0  0
 13 15  1  0  0  0  0
 14 13  1  0  0  0  0
 16 17  1  0  0  0  0
 18 16  1  0  0  0  0
 19 16  1  0  0  0  0
M  END
>  <SMILES>
c1ccccc1.NC

>  <MoleculeName>
BenzeneMeNH2NHpi095

>  <Distance Scale>
0.95

>  <Energy Value>
-3.09

$$$$
/home/S66X8/2941_31UracilEthene100.xyz
 OpenBabel06262409173D

 18 17  0  0  0  0  0  0  0  0999 V2000
   -0.0509   -0.9801    0.0340 N   0  0  0  0  0  0  0  0  0  0  0  0
   -0.0532   -1.9907    0.0498 H   0  0  0  0  0  0  0  0  0  0  0  0
   -1.3088   -0.3619    0.0040 C   0  0  0  0  0  0  0  0  0  0  0  0
   -2.3272   -1.0326   -0.0058 O   0  0  0  0  0  0  0  0  0  0  0  0
   -1.2368    1.0880   -0.0122 C   0  0  0  0  0  0  0  0  0  0  0  0
   -2.1527    1.6515   -0.0548 H   0  0  0  0  0  0  0  0  0  0  0  0
   -0.0352    1.6978    0.0337 C   0  0  0  0  0  0  0  0  0  0  0  0
    0.0704    2.7725    0.0319 H   0  0  0  0  0  0  0  0  0  0  0  0
    1.1345    0.9903    0.0918 N   0  0  0  0  0  0  0  0  0  0  0  0
    2.0237    1.4568    0.1557 H   0  0  0  0  0  0  0  0  0  0  0  0
    1.1932   -0.3918    0.1158 C   0  0  0  0  0  0  0  0  0  0  0  0
    2.2364   -1.0112    0.1942 O   0  0  0  0  0  0  0  0  0  0  0  0
    0.7265    0.0256    3.4153 C   0  0  0  0  0  0  0  0  0  0  0  0
    1.2436   -0.8453    3.0381 H   0  0  0  0  0  0  0  0  0  0  0  0
    1.3321    0.8126    3.8426 H   0  0  0  0  0  0  0  0  0  0  0  0
   -0.6023    0.1262    3.3661 C   0  0  0  0  0  0  0  0  0  0  0  0
   -1.2143   -0.6613    2.9492 H   0  0  0  0  0  0  0  0  0  0  0  0
   -1.1141    0.9973    3.7501 H   0  0  0  0  0  0  0  0  0  0  0  0
  1  2  1  0  0  0  0
  1 11  1  0  0  0  0
  3  1  1  0  0  0  0
  4  3  2  0  0  0  0
  5  3  1  0  0  0  0
  5  7  2  0  0  0  0
  6  5  1  0  0  0  0
  7  9  1  0  0  0  0
  8  7  1  0  0  0  0
  9 11  1  0  0  0  0
  9 10  1  0  0  0  0
 11 12  2  0  0  0  0
 13 15  1  0  0  0  0
 14 13  1  0  0  0  0
 16 13  2  0  0  0  0
 16 18  1  0  0  0  0
 17 16  1  0  0  0  0
M  END
>  <SMILES>
[nH]1c(=O)cc[nH]c1=O.C=C

>  <MoleculeName>
UracilEthene100

>  <Distance Scale>
1.0

>  <Energy Value>
-3.38

$$$$
/home/S66X8/2885_24BenzeneBenzenepipi100.xyz
 OpenBabel06262409173D

 24 24  0  0  0  0  0  0  0  0999 V2000
    0.7126    1.1210    0.0605 C   0  0  0  0  0  0  0  0  0  0  0  0
    1.3578    1.9864    0.1277 H   0  0  0  0  0  0  0  0  0  0  0  0
    1.2582   -0.1593    0.1242 C   0  0  0  0  0  0  0  0  0  0  0  0
    2.3250   -0.2871    0.2467 H   0  0  0  0  0  0  0  0  0  0  0  0
    0.4269   -1.2745    0.0427 C   0  0  0  0  0  0  0  0  0  0  0  0
    0.8504   -2.2684    0.0947 H   0  0  0  0  0  0  0  0  0  0  0  0
   -0.9496   -1.1101   -0.1003 C   0  0  0  0  0  0  0  0  0  0  0  0
   -1.5945   -1.9763   -0.1637 H   0  0  0  0  0  0  0  0  0  0  0  0
   -1.4955    0.1711   -0.1615 C   0  0  0  0  0  0  0  0  0  0  0  0
   -2.5638    0.2992   -0.2737 H   0  0  0  0  0  0  0  0  0  0  0  0
   -0.6638    1.2866   -0.0834 C   0  0  0  0  0  0  0  0  0  0  0  0
   -1.0869    2.2810   -0.1329 H   0  0  0  0  0  0  0  0  0  0  0  0
    1.9495    1.1101    3.6008 C   0  0  0  0  0  0  0  0  0  0  0  0
    2.5943    1.9763    3.6646 H   0  0  0  0  0  0  0  0  0  0  0  0
    2.4954   -0.1710    3.6624 C   0  0  0  0  0  0  0  0  0  0  0  0
    3.5636   -0.2992    3.7751 H   0  0  0  0  0  0  0  0  0  0  0  0
    1.6638   -1.2866    3.5837 C   0  0  0  0  0  0  0  0  0  0  0  0
    2.0869   -2.2810    3.6334 H   0  0  0  0  0  0  0  0  0  0  0  0
    0.2874   -1.1210    3.4390 C   0  0  0  0  0  0  0  0  0  0  0  0
   -0.3577   -1.9864    3.3714 H   0  0  0  0  0  0  0  0  0  0  0  0
   -0.2582    0.1592    3.3750 C   0  0  0  0  0  0  0  0  0  0  0  0
   -1.3248    0.2871    3.2518 H   0  0  0  0  0  0  0  0  0  0  0  0
    0.5731    1.2745    3.4571 C   0  0  0  0  0  0  0  0  0  0  0  0
    0.1496    2.2684    3.4047 H   0  0  0  0  0  0  0  0  0  0  0  0
  1  3  1  0  0  0  0
  1  2  1  0  0  0  0
  3  4  1  0  0  0  0
  5  6  1  0  0  0  0
  5  3  2  0  0  0  0
  7  5  1  0  0  0  0
  8  7  1  0  0  0  0
  9  7  2  0  0  0  0
  9 11  1  0  0  0  0
 10  9  1  0  0  0  0
 11  1  2  0  0  0  0
 12 11  1  0  0  0  0
 13 15  1  0  0  0  0
 13 14  1  0  0  0  0
 15 16  1  0  0  0  0
 17 18  1  0  0  0  0
 17 15  2  0  0  0  0
 19 17  1  0  0  0  0
 20 19  1  0  0  0  0
 21 19  2  0  0  0  0
 21 23  1  0  0  0  0
 22 21  1  0  0  0  0
 23 13  2  0  0  0  0
 24 23  1  0  0  0  0
M  END
>  <SMILES>
c1ccccc1.c1ccccc1

>  <MoleculeName>
BenzeneBenzenepipi100

>  <Distance Scale>
1.0

>  <Energy Value>
-2.74

$$$$
/home/S66X8/2746_06MeOHMeNH2200.xyz
 OpenBabel06262409173D

 13 11  0  0  0  0  0  0  0  0999 V2000
   -0.7069    0.0458    0.0064 O   0  0  0  0  0  0  0  0  0  0  0  0
    0.2656    0.0717    0.0013 H   0  0  0  0  0  0  0  0  0  0  0  0
   -1.0767   -1.3139    0.0016 C   0  0  0  0  0  0  0  0  0  0  0  0
   -2.1629   -1.3632    0.0059 H   0  0  0  0  0  0  0  0  0  0  0  0
   -0.7234   -1.8447   -0.8877 H   0  0  0  0  0  0  0  0  0  0  0  0
   -0.7161   -1.8528    0.8831 H   0  0  0  0  0  0  0  0  0  0  0  0
    4.1983   -0.1480   -0.0082 N   0  0  0  0  0  0  0  0  0  0  0  0
    4.5689    0.3598    0.7850 H   0  0  0  0  0  0  0  0  0  0  0  0
    4.5690    0.3164   -0.8274 H   0  0  0  0  0  0  0  0  0  0  0  0
    4.6761   -1.5340    0.0293 C   0  0  0  0  0  0  0  0  0  0  0  0
    4.2842   -2.0680   -0.8329 H   0  0  0  0  0  0  0  0  0  0  0  0
    5.7628   -1.6407    0.0323 H   0  0  0  0  0  0  0  0  0  0  0  0
    4.2839   -2.0207    0.9189 H   0  0  0  0  0  0  0  0  0  0  0  0
  2  1  1  0  0  0  0
  3  4  1  0  0  0  0
  3  1  1  0  0  0  0
  3  6  1  0  0  0  0
  5  3  1  0  0  0  0
  7 10  1  0  0  0  0
  7  8  1  0  0  0  0
  9  7  1  0  0  0  0
 10 12  1  0  0  0  0
 10 13  1  0  0  0  0
 11 10  1  0  0  0  0
M  END
>  <SMILES>
OC.NC

>  <MoleculeName>
MeOHMeNH2200

>  <Distance Scale>
2.0

>  <Energy Value>
-1.27

$$$$
/home/S66X8/2762_08MeOHWater200.xyz
 OpenBabel06262409173D

  9  7  0  0  0  0  0  0  0  0999 V2000
   -0.7866    0.0452   -0.0072 O   0  0  0  0  0  0  0  0  0  0  0  0
    0.1777    0.0127   -0.0068 H   0  0  0  0  0  0  0  0  0  0  0  0
   -1.2480   -1.2903    0.0011 C   0  0  0  0  0  0  0  0  0  0  0  0
   -2.3343   -1.2589    0.0002 H   0  0  0  0  0  0  0  0  0  0  0  0
   -0.9260   -1.8498   -0.8804 H   0  0  0  0  0  0  0  0  0  0  0  0
   -0.9270   -1.8385    0.8901 H   0  0  0  0  0  0  0  0  0  0  0  0
    4.1461   -0.1175   -0.0026 O   0  0  0  0  0  0  0  0  0  0  0  0
    4.5853    0.2706   -0.7624 H   0  0  0  0  0  0  0  0  0  0  0  0
    4.5840    0.2851    0.7505 H   0  0  0  0  0  0  0  0  0  0  0  0
  1  2  1  0  0  0  0
  1  3  1  0  0  0  0
  3  6  1  0  0  0  0
  4  3  1  0  0  0  0
  5  3  1  0  0  0  0
  7  9  1  0  0  0  0
  8  7  1  0  0  0  0
M  END
>  <SMILES>
OC.O

>  <MoleculeName>
MeOHWater200

>  <Distance Scale>
2.0

>  <Energy Value>
-0.91

$$$$
/home/S66X8/2993_37CyclopentaneNeopentane150.xyz
 OpenBabel06262409173D

 32 31  0  0  0  0  0  0  0  0999 V2000
    0.7999   -1.0221    0.6877 C   0  0  0  0  0  0  0  0  0  0  0  0
    0.8536   -1.1221   -0.3980 H   0  0  0  0  0  0  0  0  0  0  0  0
    1.4914   -1.7442    1.1197 H   0  0  0  0  0  0  0  0  0  0  0  0
    1.1169    0.4250    1.0997 C   0  0  0  0  0  0  0  0  0  0  0  0
    1.8381    0.8901    0.4305 H   0  0  0  0  0  0  0  0  0  0  0  0
    1.5556    0.4398    2.0971 H   0  0  0  0  0  0  0  0  0  0  0  0
   -0.2446    1.1657    1.1030 C   0  0  0  0  0  0  0  0  0  0  0  0
   -0.2581    2.0009    0.4053 H   0  0  0  0  0  0  0  0  0  0  0  0
   -0.4488    1.5770    2.0910 H   0  0  0  0  0  0  0  0  0  0  0  0
   -1.2987    0.1038    0.7393 C   0  0  0  0  0  0  0  0  0  0  0  0
   -1.4736    0.1052   -0.3380 H   0  0  0  0  0  0  0  0  0  0  0  0
   -2.2567    0.2780    1.2272 H   0  0  0  0  0  0  0  0  0  0  0  0
   -0.6469   -1.2201    1.1363 C   0  0  0  0  0  0  0  0  0  0  0  0
   -1.1244   -2.0876    0.6830 H   0  0  0  0  0  0  0  0  0  0  0  0
   -0.6860   -1.3453    2.2202 H   0  0  0  0  0  0  0  0  0  0  0  0
    0.0818    0.1564    7.0465 C   0  0  0  0  0  0  0  0  0  0  0  0
   -0.0146    0.0043    8.5622 C   0  0  0  0  0  0  0  0  0  0  0  0
    0.9780   -0.0112    9.0145 H   0  0  0  0  0  0  0  0  0  0  0  0
   -0.5735    0.8322    9.0006 H   0  0  0  0  0  0  0  0  0  0  0  0
   -0.5217   -0.9244    8.8275 H   0  0  0  0  0  0  0  0  0  0  0  0
    0.7958    1.4633    6.7109 C   0  0  0  0  0  0  0  0  0  0  0  0
    0.8773    1.5968    5.6312 H   0  0  0  0  0  0  0  0  0  0  0  0
    0.2524    2.3180    7.1164 H   0  0  0  0  0  0  0  0  0  0  0  0
    1.8034    1.4739    7.1291 H   0  0  0  0  0  0  0  0  0  0  0  0
   -1.3232    0.1762    6.4492 C   0  0  0  0  0  0  0  0  0  0  0  0
   -1.2863    0.2934    5.3654 H   0  0  0  0  0  0  0  0  0  0  0  0
   -1.9055    1.0036    6.8576 H   0  0  0  0  0  0  0  0  0  0  0  0
   -1.8531   -0.7516    6.6705 H   0  0  0  0  0  0  0  0  0  0  0  0
    0.8697   -1.0171    6.4692 C   0  0  0  0  0  0  0  0  0  0  0  0
    0.3745   -1.9641    6.6894 H   0  0  0  0  0  0  0  0  0  0  0  0
    0.9645   -0.9299    5.3861 H   0  0  0  0  0  0  0  0  0  0  0  0
    1.8744   -1.0545    6.8929 H   0  0  0  0  0  0  0  0  0  0  0  0
  1  4  1  0  0  0  0
  1  3  1  0  0  0  0
  1 13  1  0  0  0  0
  2  1  1  0  0  0  0
  4  7  1  0  0  0  0
  4  6  1  0  0  0  0
  5  4  1  0  0  0  0
  7  9  1  0  0  0  0
  8  7  1  0  0  0  0
 10  7  1  0  0  0  0
 10 13  1  0  0  0  0
 10 12  1  0  0  0  0
 11 10  1  0  0  0  0
 13 15  1  0  0  0  0
 14 13  1  0  0  0  0
 16 17  1  0  0  0  0
 17 20  1  0  0  0  0
 17 19  1  0  0  0  0
 17 18  1  0  0  0  0
 21 16  1  0  0  0  0
 21 23  1  0  0  0  0
 21 24  1  0  0  0  0
 22 21  1  0  0  0  0
 25 28  1  0  0  0  0
 25 27  1  0  0  0  0
 25 16  1  0  0  0  0
 26 25  1  0  0  0  0
 29 30  1  0  0  0  0
 29 32  1  0  0  0  0
 29 16  1  0  0  0  0
 31 29  1  0  0  0  0
M  END
>  <SMILES>
C1CCCC1.C(C)(C)(C)C

>  <MoleculeName>
CyclopentaneNeopentane150

>  <Distance Scale>
1.5

>  <Energy Value>
-0.71

$$$$
/home/S66X8/3011_40BenzeneNeopentane090.xyz
 OpenBabel06262409173D

 29 28  0  0  0  0  0  0  0  0999 V2000
    0.3120    0.5610    0.4967 C   0  0  0  0  0  0  0  0  0  0  0  0
    0.7421    1.5534    0.4816 H   0  0  0  0  0  0  0  0  0  0  0  0
    1.1422   -0.5581    0.5361 C   0  0  0  0  0  0  0  0  0  0  0  0
    2.2165   -0.4343    0.5524 H   0  0  0  0  0  0  0  0  0  0  0  0
    0.5878   -1.8367    0.5541 C   0  0  0  0  0  0  0  0  0  0  0  0
    1.2319   -2.7048    0.5852 H   0  0  0  0  0  0  0  0  0  0  0  0
   -0.7967   -1.9964    0.5330 C   0  0  0  0  0  0  0  0  0  0  0  0
   -1.2268   -2.9884    0.5486 H   0  0  0  0  0  0  0  0  0  0  0  0
   -1.6269   -0.8775    0.4942 C   0  0  0  0  0  0  0  0  0  0  0  0
   -2.7011   -1.0013    0.4798 H   0  0  0  0  0  0  0  0  0  0  0  0
   -1.0727    0.4012    0.4760 C   0  0  0  0  0  0  0  0  0  0  0  0
   -1.7170    1.2694    0.4459 H   0  0  0  0  0  0  0  0  0  0  0  0
    0.1847    0.5175    4.4812 C   0  0  0  0  0  0  0  0  0  0  0  0
    1.6310    0.6963    4.0262 C   0  0  0  0  0  0  0  0  0  0  0  0
    2.0468    1.6296    4.4096 H   0  0  0  0  0  0  0  0  0  0  0  0
    2.2544   -0.1243    4.3851 H   0  0  0  0  0  0  0  0  0  0  0  0
    1.6916    0.7157    2.9373 H   0  0  0  0  0  0  0  0  0  0  0  0
    0.1303    0.4862    6.0060 C   0  0  0  0  0  0  0  0  0  0  0  0
   -0.8954    0.3587    6.3551 H   0  0  0  0  0  0  0  0  0  0  0  0
    0.7258   -0.3395    6.3986 H   0  0  0  0  0  0  0  0  0  0  0  0
    0.5186    1.4140    6.4289 H   0  0  0  0  0  0  0  0  0  0  0  0
   -0.3646   -0.7920    3.9209 C   0  0  0  0  0  0  0  0  0  0  0  0
   -1.3995   -0.9422    4.2336 H   0  0  0  0  0  0  0  0  0  0  0  0
    0.2218   -1.6409    4.2767 H   0  0  0  0  0  0  0  0  0  0  0  0
   -0.3359   -0.7924    2.8306 H   0  0  0  0  0  0  0  0  0  0  0  0
   -0.6566    1.6821    3.9650 C   0  0  0  0  0  0  0  0  0  0  0  0
   -0.6351    1.7181    2.8750 H   0  0  0  0  0  0  0  0  0  0  0  0
   -1.6964    1.5783    4.2795 H   0  0  0  0  0  0  0  0  0  0  0  0
   -0.2810    2.6328    4.3471 H   0  0  0  0  0  0  0  0  0  0  0  0
  1  3  1  0  0  0  0
  2  1  1  0  0  0  0
  3  4  1  0  0  0  0
  3  5  2  0  0  0  0
  5  6  1  0  0  0  0
  7  8  1  0  0  0  0
  7  5  1  0  0  0  0
  9  7  2  0  0  0  0
 10  9  1  0  0  0  0
 11  9  1  0  0  0  0
 11  1  2  0  0  0  0
 12 11  1  0  0  0  0
 13 18  1  0  0  0  0
 14 16  1  0  0  0  0
 14 15  1  0  0  0  0
 14 13  1  0  0  0  0
 17 14  1  0  0  0  0
 18 19  1  0  0  0  0
 18 20  1  0  0  0  0
 18 21  1  0  0  0  0
 22 23  1  0  0  0  0
 22 24  1  0  0  0  0
 22 13  1  0  0  0  0
 25 22  1  0  0  0  0
 26 28  1  0  0  0  0
 26 29  1  0  0  0  0
 26 13  1  0  0  0  0
 27 26  1  0  0  0  0
M  END
>  <SMILES>
c1ccccc1.C(C)(C)(C)C

>  <MoleculeName>
BenzeneNeopentane090

>  <Distance Scale>
0.9

>  <Energy Value>
-1.86

$$$$
/home/S66X8/3001_38CyclopentaneCyclopentane150.xyz
 OpenBabel06262409173D

 30 30  0  0  0  0  0  0  0  0999 V2000
    0.9569   -0.8918    1.1420 C   0  0  0  0  0  0  0  0  0  0  0  0
    1.5046   -1.2784    0.2834 H   0  0  0  0  0  0  0  0  0  0  0  0
    1.4214   -1.3148    2.0310 H   0  0  0  0  0  0  0  0  0  0  0  0
    0.9909    0.6585    1.1455 C   0  0  0  0  0  0  0  0  0  0  0  0
    1.5106    1.0231    0.2599 H   0  0  0  0  0  0  0  0  0  0  0  0
    1.5163    1.0598    2.0105 H   0  0  0  0  0  0  0  0  0  0  0  0
   -0.4795    1.1023    1.1039 C   0  0  0  0  0  0  0  0  0  0  0  0
   -0.6163    2.0649    0.6136 H   0  0  0  0  0  0  0  0  0  0  0  0
   -0.8747    1.1891    2.1181 H   0  0  0  0  0  0  0  0  0  0  0  0
   -1.1821   -0.0528    0.3933 C   0  0  0  0  0  0  0  0  0  0  0  0
   -0.9489   -0.0268   -0.6738 H   0  0  0  0  0  0  0  0  0  0  0  0
   -2.2657   -0.0336    0.5013 H   0  0  0  0  0  0  0  0  0  0  0  0
   -0.5307   -1.2749    1.0393 C   0  0  0  0  0  0  0  0  0  0  0  0
   -0.6904   -2.1970    0.4830 H   0  0  0  0  0  0  0  0  0  0  0  0
   -0.9508   -1.4154    2.0367 H   0  0  0  0  0  0  0  0  0  0  0  0
   -1.1006   -0.3208    6.4904 C   0  0  0  0  0  0  0  0  0  0  0  0
   -1.4337   -0.0841    5.4778 H   0  0  0  0  0  0  0  0  0  0  0  0
   -1.9054   -0.8639    6.9834 H   0  0  0  0  0  0  0  0  0  0  0  0
    0.2130   -1.1163    6.4427 C   0  0  0  0  0  0  0  0  0  0  0  0
    0.2630   -1.7741    5.5765 H   0  0  0  0  0  0  0  0  0  0  0  0
    0.2933   -1.7477    7.3270 H   0  0  0  0  0  0  0  0  0  0  0  0
    1.3424   -0.0536    6.4433 C   0  0  0  0  0  0  0  0  0  0  0  0
    1.9636   -0.1143    5.5514 H   0  0  0  0  0  0  0  0  0  0  0  0
    1.9998   -0.2035    7.2987 H   0  0  0  0  0  0  0  0  0  0  0  0
    0.6322    1.3081    6.5511 C   0  0  0  0  0  0  0  0  0  0  0  0
    0.4523    1.7166    5.5551 H   0  0  0  0  0  0  0  0  0  0  0  0
    1.2126    2.0425    7.1071 H   0  0  0  0  0  0  0  0  0  0  0  0
   -0.7099    0.9736    7.2009 C   0  0  0  0  0  0  0  0  0  0  0  0
   -1.4495    1.7661    7.0961 H   0  0  0  0  0  0  0  0  0  0  0  0
   -0.5698    0.7820    8.2675 H   0  0  0  0  0  0  0  0  0  0  0  0
  1  4  1  0  0  0  0
  1  3  1  0  0  0  0
  2  1  1  0  0  0  0
  4  6  1  0  0  0  0
  5  4  1  0  0  0  0
  7  4  1  0  0  0  0
  7  9  1  0  0  0  0
  8  7  1  0  0  0  0
 10 12  1  0  0  0  0
 10 13  1  0  0  0  0
 10  7  1  0  0  0  0
 11 10  1  0  0  0  0
 13  1  1  0  0  0  0
 13 15  1  0  0  0  0
 14 13  1  0  0  0  0
 16 18  1  0  0  0  0
 16 28  1  0  0  0  0
 17 16  1  0  0  0  0
 19 22  1  0  0  0  0
 19 16  1  0  0  0  0
 19 21  1  0  0  0  0
 20 19  1  0  0  0  0
 22 25  1  0  0  0  0
 22 24  1  0  0  0  0
 23 22  1  0  0  0  0
 25 27  1  0  0  0  0
 25 28  1  0  0  0  0
 26 25  1  0  0  0  0
 28 30  1  0  0  0  0
 29 28  1  0  0  0  0
M  END
>  <SMILES>
C1CCCC1.C1CCCC1

>  <MoleculeName>
CyclopentaneCyclopentane150

>  <Distance Scale>
1.5

>  <Energy Value>
-0.79

$$$$
/home/S66X8/2954_32UracilEthyne200.xyz
 OpenBabel06262409173D

 16 15  0  0  0  0  0  0  0  0999 V2000
   -0.0555   -0.9480    0.0100 N   0  0  0  0  0  0  0  0  0  0  0  0
   -0.0573   -1.9577    0.0551 H   0  0  0  0  0  0  0  0  0  0  0  0
   -1.3140   -0.3351   -0.0646 C   0  0  0  0  0  0  0  0  0  0  0  0
   -2.3289   -1.0079   -0.1231 O   0  0  0  0  0  0  0  0  0  0  0  0
   -1.2484    1.1161   -0.0665 C   0  0  0  0  0  0  0  0  0  0  0  0
   -2.1643    1.6753   -0.1471 H   0  0  0  0  0  0  0  0  0  0  0  0
   -0.0531    1.7314    0.0342 C   0  0  0  0  0  0  0  0  0  0  0  0
    0.0481    2.8064    0.0434 H   0  0  0  0  0  0  0  0  0  0  0  0
    1.1159    1.0276    0.1352 N   0  0  0  0  0  0  0  0  0  0  0  0
    1.9967    1.4973    0.2616 H   0  0  0  0  0  0  0  0  0  0  0  0
    1.1753   -0.3538    0.1762 C   0  0  0  0  0  0  0  0  0  0  0  0
    2.2146   -0.9665    0.3352 O   0  0  0  0  0  0  0  0  0  0  0  0
    0.8671   -0.1501    6.2538 C   0  0  0  0  0  0  0  0  0  0  0  0
    1.8629   -0.5041    6.1395 H   0  0  0  0  0  0  0  0  0  0  0  0
   -0.2775    0.2363    6.3600 C   0  0  0  0  0  0  0  0  0  0  0  0
   -1.2824    0.5650    6.4603 H   0  0  0  0  0  0  0  0  0  0  0  0
  1  2  1  0  0  0  0
  1 11  1  0  0  0  0
  3  1  1  0  0  0  0
  4  3  2  0  0  0  0
  5  3  1  0  0  0  0
  5  7  2  0  0  0  0
  6  5  1  0  0  0  0
  7  8  1  0  0  0  0
  7  9  1  0  0  0  0
  9 11  1  0  0  0  0
  9 10  1  0  0  0  0
 11 12  2  0  0  0  0
 13 15  3  0  0  0  0
 14 13  1  0  0  0  0
 15 16  1  0  0  0  0
M  END
>  <SMILES>
[nH]1c(=O)cc[nH]c1=O.C#C

>  <MoleculeName>
UracilEthyne200

>  <Distance Scale>
2.0

>  <Energy Value>
-0.27

$$$$
/home/S66X8/3089_49BenzenePyridineTS150.xyz
 OpenBabel06262409173D

 23 23  0  0  0  0  0  0  0  0999 V2000
    0.8451    1.0579    0.6995 C   0  0  0  0  0  0  0  0  0  0  0  0
    1.5064    1.9032    0.8334 H   0  0  0  0  0  0  0  0  0  0  0  0
    1.3755   -0.2175    0.5112 C   0  0  0  0  0  0  0  0  0  0  0  0
    2.4472   -0.3615    0.5029 H   0  0  0  0  0  0  0  0  0  0  0  0
    0.5241   -1.3070    0.3332 C   0  0  0  0  0  0  0  0  0  0  0  0
    0.9357   -2.2960    0.1849 H   0  0  0  0  0  0  0  0  0  0  0  0
   -0.8577   -1.1215    0.3464 C   0  0  0  0  0  0  0  0  0  0  0  0
   -1.5184   -1.9665    0.2084 H   0  0  0  0  0  0  0  0  0  0  0  0
   -1.3880    0.1536    0.5376 C   0  0  0  0  0  0  0  0  0  0  0  0
   -2.4597    0.2974    0.5500 H   0  0  0  0  0  0  0  0  0  0  0  0
   -0.5366    1.2434    0.7127 C   0  0  0  0  0  0  0  0  0  0  0  0
   -0.9489    2.2328    0.8574 H   0  0  0  0  0  0  0  0  0  0  0  0
    0.0047    0.0544    8.2390 N   0  0  0  0  0  0  0  0  0  0  0  0
    0.1593    0.9923    7.2941 C   0  0  0  0  0  0  0  0  0  0  0  0
    0.3011    2.0049    7.6520 H   0  0  0  0  0  0  0  0  0  0  0  0
    0.1451    0.7250    5.9276 C   0  0  0  0  0  0  0  0  0  0  0  0
    0.2754    1.5261    5.2138 H   0  0  0  0  0  0  0  0  0  0  0  0
   -0.0392   -0.5866    5.5024 C   0  0  0  0  0  0  0  0  0  0  0  0
   -0.0558   -0.8297    4.4490 H   0  0  0  0  0  0  0  0  0  0  0  0
   -0.2011   -1.5716    6.4712 C   0  0  0  0  0  0  0  0  0  0  0  0
   -0.3476   -2.6068    6.1964 H   0  0  0  0  0  0  0  0  0  0  0  0
   -0.1719   -1.2043    7.8143 C   0  0  0  0  0  0  0  0  0  0  0  0
   -0.2955   -1.9518    8.5884 H   0  0  0  0  0  0  0  0  0  0  0  0
  1 11  1  0  0  0  0
  1  2  1  0  0  0  0
  3  1  2  0  0  0  0
  4  3  1  0  0  0  0
  5  7  2  0  0  0  0
  5  3  1  0  0  0  0
  6  5  1  0  0  0  0
  7  9  1  0  0  0  0
  8  7  1  0  0  0  0
  9 10  1  0  0  0  0
  9 11  2  0  0  0  0
 11 12  1  0  0  0  0
 14 15  1  0  0  0  0
 14 13  2  0  0  0  0
 16 14  1  0  0  0  0
 17 16  1  0  0  0  0
 18 16  2  0  0  0  0
 18 20  1  0  0  0  0
 19 18  1  0  0  0  0
 20 22  2  0  0  0  0
 21 20  1  0  0  0  0
 22 13  1  0  0  0  0
 22 23  1  0  0  0  0
M  END
>  <SMILES>
c1ccccc1.n1ccccc1

>  <MoleculeName>
BenzenePyridineTS150

>  <Distance Scale>
1.5

>  <Energy Value>
-1.05

$$$$
/home/S66X8/2732_05MeOHMeOH095.xyz
 OpenBabel06262409173D

 12 10  0  0  0  0  0  0  0  0999 V2000
   -0.6361   -0.0233    0.2806 O   0  0  0  0  0  0  0  0  0  0  0  0
    0.3081   -0.0471    0.0765 H   0  0  0  0  0  0  0  0  0  0  0  0
   -1.1521   -1.3113    0.0153 C   0  0  0  0  0  0  0  0  0  0  0  0
   -2.2099   -1.2963    0.2640 H   0  0  0  0  0  0  0  0  0  0  0  0
   -1.0566   -1.5927   -1.0362 H   0  0  0  0  0  0  0  0  0  0  0  0
   -0.6748   -2.0863    0.6205 H   0  0  0  0  0  0  0  0  0  0  0  0
    2.1447   -0.1195   -0.0090 O   0  0  0  0  0  0  0  0  0  0  0  0
    2.6135    0.4949   -0.5787 H   0  0  0  0  0  0  0  0  0  0  0  0
    2.6535    0.0375    1.3127 C   0  0  0  0  0  0  0  0  0  0  0  0
    2.1000   -0.6507    1.9428 H   0  0  0  0  0  0  0  0  0  0  0  0
    3.7125   -0.2129    1.3694 H   0  0  0  0  0  0  0  0  0  0  0  0
    2.5011    1.0482    1.6906 H   0  0  0  0  0  0  0  0  0  0  0  0
  2  1  1  0  0  0  0
  3  4  1  0  0  0  0
  3  1  1  0  0  0  0
  3  6  1  0  0  0  0
  5  3  1  0  0  0  0
  7  9  1  0  0  0  0
  8  7  1  0  0  0  0
  9 11  1  0  0  0  0
  9 12  1  0  0  0  0
  9 10  1  0  0  0  0
M  END
>  <SMILES>
OC.OC

>  <MoleculeName>
MeOHMeOH095

>  <Distance Scale>
0.95

>  <Energy Value>
-5.69

$$$$
/home/S66X8/3184_61PentaneAcOH125.xyz
 OpenBabel06262409173D

 25 23  0  0  0  0  0  0  0  0999 V2000
   -2.2753   -0.1351    0.8313 C   0  0  0  0  0  0  0  0  0  0  0  0
   -2.4907   -0.7279   -0.0576 H   0  0  0  0  0  0  0  0  0  0  0  0
   -2.2263   -0.8184    1.6788 H   0  0  0  0  0  0  0  0  0  0  0  0
   -3.1120    0.5449    0.9874 H   0  0  0  0  0  0  0  0  0  0  0  0
   -0.9617    0.6193    0.6694 C   0  0  0  0  0  0  0  0  0  0  0  0
   -0.7887    1.2504    1.5447 H   0  0  0  0  0  0  0  0  0  0  0  0
   -1.0262    1.2954   -0.1865 H   0  0  0  0  0  0  0  0  0  0  0  0
    0.2265   -0.3147    0.4800 C   0  0  0  0  0  0  0  0  0  0  0  0
    0.3094   -0.9751    1.3480 H   0  0  0  0  0  0  0  0  0  0  0  0
    0.0392   -0.9660   -0.3788 H   0  0  0  0  0  0  0  0  0  0  0  0
    1.5430    0.4212    0.2690 C   0  0  0  0  0  0  0  0  0  0  0  0
    1.7116    1.1078    1.1024 H   0  0  0  0  0  0  0  0  0  0  0  0
    1.4661    1.0437   -0.6253 H   0  0  0  0  0  0  0  0  0  0  0  0
    2.7276   -0.5269    0.1375 C   0  0  0  0  0  0  0  0  0  0  0  0
    2.5887   -1.2032   -0.7058 H   0  0  0  0  0  0  0  0  0  0  0  0
    3.6615    0.0117   -0.0160 H   0  0  0  0  0  0  0  0  0  0  0  0
    2.8352   -1.1374    1.0341 H   0  0  0  0  0  0  0  0  0  0  0  0
   -0.6146   -0.3219    4.7924 C   0  0  0  0  0  0  0  0  0  0  0  0
   -1.0372   -1.4370    4.5953 O   0  0  0  0  0  0  0  0  0  0  0  0
   -1.4283    0.7371    5.0250 O   0  0  0  0  0  0  0  0  0  0  0  0
   -2.3291    0.3827    4.9845 H   0  0  0  0  0  0  0  0  0  0  0  0
    0.8256    0.0878    4.8096 C   0  0  0  0  0  0  0  0  0  0  0  0
    1.4515   -0.7824    4.6515 H   0  0  0  0  0  0  0  0  0  0  0  0
    1.0017    0.8221    4.0265 H   0  0  0  0  0  0  0  0  0  0  0  0
    1.0629    0.5571    5.7614 H   0  0  0  0  0  0  0  0  0  0  0  0
  1  4  1  0  0  0  0
  1  3  1  0  0  0  0
  2  1  1  0  0  0  0
  5  1  1  0  0  0  0
  5  6  1  0  0  0  0
  7  5  1  0  0  0  0
  8  5  1  0  0  0  0
  8  9  1  0  0  0  0
 10  8  1  0  0  0  0
 11  8  1  0  0  0  0
 11 12  1  0  0  0  0
 13 11  1  0  0  0  0
 14 11  1  0  0  0  0
 14 17  1  0  0  0  0
 15 14  1  0  0  0  0
 16 14  1  0  0  0  0
 18 22  1  0  0  0  0
 18 20  1  0  0  0  0
 19 18  2  0  0  0  0
 21 20  1  0  0  0  0
 22 25  1  0  0  0  0
 23 22  1  0  0  0  0
 24 22  1  0  0  0  0
M  END
>  <SMILES>
CCCCC.C(=O)(O)C

>  <MoleculeName>
PentaneAcOH125

>  <Distance Scale>
1.25

>  <Energy Value>
-1.79

$$$$
/home/S66X8/3025_41UracilPentane150.xyz
 OpenBabel06262409173D

 29 28  0  0  0  0  0  0  0  0999 V2000
   -0.2089   -0.9646    0.5348 N   0  0  0  0  0  0  0  0  0  0  0  0
   -0.2242   -1.9731    0.6051 H   0  0  0  0  0  0  0  0  0  0  0  0
   -1.4463   -0.3446    0.3067 C   0  0  0  0  0  0  0  0  0  0  0  0
   -2.4612   -1.0108    0.1979 O   0  0  0  0  0  0  0  0  0  0  0  0
   -1.3578    1.1032    0.2281 C   0  0  0  0  0  0  0  0  0  0  0  0
   -2.2566    1.6677    0.0498 H   0  0  0  0  0  0  0  0  0  0  0  0
   -0.1630    1.7099    0.3811 C   0  0  0  0  0  0  0  0  0  0  0  0
   -0.0463    2.7824    0.3333 H   0  0  0  0  0  0  0  0  0  0  0  0
    0.9855    1.0008    0.6112 N   0  0  0  0  0  0  0  0  0  0  0  0
    1.8676    1.4669    0.7448 H   0  0  0  0  0  0  0  0  0  0  0  0
    1.0270   -0.3792    0.7126 C   0  0  0  0  0  0  0  0  0  0  0  0
    2.0492   -0.9974    0.9373 O   0  0  0  0  0  0  0  0  0  0  0  0
    1.2821    2.3753    5.7303 C   0  0  0  0  0  0  0  0  0  0  0  0
    0.8512    2.6863    4.7775 H   0  0  0  0  0  0  0  0  0  0  0  0
    0.6478    2.7807    6.5185 H   0  0  0  0  0  0  0  0  0  0  0  0
    2.2649    2.8357    5.8234 H   0  0  0  0  0  0  0  0  0  0  0  0
    1.3551    0.8564    5.8198 C   0  0  0  0  0  0  0  0  0  0  0  0
    1.7855    0.5668    6.7811 H   0  0  0  0  0  0  0  0  0  0  0  0
    2.0297    0.4653    5.0547 H   0  0  0  0  0  0  0  0  0  0  0  0
   -0.0097    0.1982    5.6650 C   0  0  0  0  0  0  0  0  0  0  0  0
   -0.6810    0.5671    6.4466 H   0  0  0  0  0  0  0  0  0  0  0  0
   -0.4572    0.5085    4.7151 H   0  0  0  0  0  0  0  0  0  0  0  0
    0.0466   -1.3224    5.7246 C   0  0  0  0  0  0  0  0  0  0  0  0
    0.4702   -1.6249    6.6853 H   0  0  0  0  0  0  0  0  0  0  0  0
    0.7381   -1.6843    4.9601 H   0  0  0  0  0  0  0  0  0  0  0  0
   -1.3227   -1.9643    5.5409 C   0  0  0  0  0  0  0  0  0  0  0  0
   -1.7611   -1.6909    4.5807 H   0  0  0  0  0  0  0  0  0  0  0  0
   -1.2658   -3.0511    5.5849 H   0  0  0  0  0  0  0  0  0  0  0  0
   -2.0107   -1.6360    6.3201 H   0  0  0  0  0  0  0  0  0  0  0  0
  1  2  1  0  0  0  0
  1 11  1  0  0  0  0
  3  1  1  0  0  0  0
  4  3  2  0  0  0  0
  5  3  1  0  0  0  0
  5  7  2  0  0  0  0
  6  5  1  0  0  0  0
  7  9  1  0  0  0  0
  8  7  1  0  0  0  0
  9 11  1  0  0  0  0
  9 10  1  0  0  0  0
 11 12  2  0  0  0  0
 13 17  1  0  0  0  0
 13 16  1  0  0  0  0
 13 15  1  0  0  0  0
 14 13  1  0  0  0  0
 17 18  1  0  0  0  0
 19 17  1  0  0  0  0
 20 23  1  0  0  0  0
 20 17  1  0  0  0  0
 20 21  1  0  0  0  0
 22 20  1  0  0  0  0
 23 24  1  0  0  0  0
 25 23  1  0  0  0  0
 26 28  1  0  0  0  0
 26 23  1  0  0  0  0
 26 29  1  0  0  0  0
 27 26  1  0  0  0  0
M  END
>  <SMILES>
[nH]1c(=O)cc[nH]c1=O.CCCCC

>  <MoleculeName>
UracilPentane150

>  <Distance Scale>
1.5

>  <Energy Value>
-0.98

$$$$
/home/S66X8/2921_28BenzeneUracilpipi150.xyz
 OpenBabel06262409173D

 24 24  0  0  0  0  0  0  0  0999 V2000
    0.8258    1.2365   -0.0403 C   0  0  0  0  0  0  0  0  0  0  0  0
    1.5210    2.0631   -0.0825 H   0  0  0  0  0  0  0  0  0  0  0  0
    1.3002   -0.0629    0.1273 C   0  0  0  0  0  0  0  0  0  0  0  0
    2.3637   -0.2423    0.2077 H   0  0  0  0  0  0  0  0  0  0  0  0
    0.4035   -1.1286    0.1982 C   0  0  0  0  0  0  0  0  0  0  0  0
    0.7738   -2.1374    0.3241 H   0  0  0  0  0  0  0  0  0  0  0  0
   -0.9678   -0.8952    0.1031 C   0  0  0  0  0  0  0  0  0  0  0  0
   -1.6652   -1.7200    0.1604 H   0  0  0  0  0  0  0  0  0  0  0  0
   -1.4435    0.4045   -0.0624 C   0  0  0  0  0  0  0  0  0  0  0  0
   -2.5075    0.5855   -0.1242 H   0  0  0  0  0  0  0  0  0  0  0  0
   -0.5458    1.4688   -0.1362 C   0  0  0  0  0  0  0  0  0  0  0  0
   -0.9142    2.4774   -0.2679 H   0  0  0  0  0  0  0  0  0  0  0  0
   -0.2175    0.5103    4.7330 N   0  0  0  0  0  0  0  0  0  0  0  0
   -0.5908    1.4121    4.4701 H   0  0  0  0  0  0  0  0  0  0  0  0
    1.1746    0.4374    4.8650 C   0  0  0  0  0  0  0  0  0  0  0  0
    1.8655    1.4318    4.7202 O   0  0  0  0  0  0  0  0  0  0  0  0
    1.6535   -0.8967    5.1831 C   0  0  0  0  0  0  0  0  0  0  0  0
    2.7106   -1.0489    5.3173 H   0  0  0  0  0  0  0  0  0  0  0  0
    0.7738   -1.9111    5.3094 C   0  0  0  0  0  0  0  0  0  0  0  0
    1.0797   -2.9195    5.5459 H   0  0  0  0  0  0  0  0  0  0  0  0
   -0.5714   -1.7261    5.1393 N   0  0  0  0  0  0  0  0  0  0  0  0
   -1.2202   -2.4886    5.2381 H   0  0  0  0  0  0  0  0  0  0  0  0
   -1.1459   -0.5013    4.8399 C   0  0  0  0  0  0  0  0  0  0  0  0
   -2.3437   -0.3504    4.6977 O   0  0  0  0  0  0  0  0  0  0  0  0
  1  3  1  0  0  0  0
  2  1  1  0  0  0  0
  3  5  2  0  0  0  0
  3  4  1  0  0  0  0
  5  6  1  0  0  0  0
  7  8  1  0  0  0  0
  7  5  1  0  0  0  0
  9  7  2  0  0  0  0
 10  9  1  0  0  0  0
 11  9  1  0  0  0  0
 11  1  2  0  0  0  0
 12 11  1  0  0  0  0
 13 23  1  0  0  0  0
 13 15  1  0  0  0  0
 14 13  1  0  0  0  0
 15 17  1  0  0  0  0
 16 15  2  0  0  0  0
 17 19  2  0  0  0  0
 17 18  1  0  0  0  0
 19 20  1  0  0  0  0
 21 22  1  0  0  0  0
 21 19  1  0  0  0  0
 23 21  1  0  0  0  0
 24 23  2  0  0  0  0
M  END
>  <SMILES>
c1ccccc1.[nH]1c(=O)cc[nH]c1=O

>  <MoleculeName>
BenzeneUracilpipi150

>  <Distance Scale>
1.5

>  <Energy Value>
-1.36

$$$$
/home/S66X8/3063_46PeptidePentane110.xyz
 OpenBabel06262409173D

 29 27  0  0  0  0  0  0  0  0999 V2000
    1.3722    1.0125    0.9708 C   0  0  0  0  0  0  0  0  0  0  0  0
    0.9522    2.0140    1.0331 H   0  0  0  0  0  0  0  0  0  0  0  0
    1.9474    0.9265    0.0507 H   0  0  0  0  0  0  0  0  0  0  0  0
    2.0517    0.8518    1.8030 H   0  0  0  0  0  0  0  0  0  0  0  0
    0.3267   -0.0776    0.9882 C   0  0  0  0  0  0  0  0  0  0  0  0
    0.6188   -1.2525    1.1713 O   0  0  0  0  0  0  0  0  0  0  0  0
   -0.9500    0.3449    0.7739 N   0  0  0  0  0  0  0  0  0  0  0  0
   -1.1047    1.3220    0.6061 H   0  0  0  0  0  0  0  0  0  0  0  0
   -2.0599   -0.5774    0.6802 C   0  0  0  0  0  0  0  0  0  0  0  0
   -1.6694   -1.5668    0.8972 H   0  0  0  0  0  0  0  0  0  0  0  0
   -2.8346   -0.3314    1.4037 H   0  0  0  0  0  0  0  0  0  0  0  0
   -2.4910   -0.5789   -0.3199 H   0  0  0  0  0  0  0  0  0  0  0  0
    2.6864    0.4807    5.1543 C   0  0  0  0  0  0  0  0  0  0  0  0
    2.8032    1.2351    4.3756 H   0  0  0  0  0  0  0  0  0  0  0  0
    2.6002    1.0056    6.1060 H   0  0  0  0  0  0  0  0  0  0  0  0
    3.5984   -0.1135    5.1811 H   0  0  0  0  0  0  0  0  0  0  0  0
    1.4581   -0.3827    4.8968 C   0  0  0  0  0  0  0  0  0  0  0  0
    1.3635   -1.1281    5.6898 H   0  0  0  0  0  0  0  0  0  0  0  0
    1.5745   -0.9361    3.9629 H   0  0  0  0  0  0  0  0  0  0  0  0
    0.1755    0.4360    4.8315 C   0  0  0  0  0  0  0  0  0  0  0  0
    0.0640    1.0137    5.7545 H   0  0  0  0  0  0  0  0  0  0  0  0
    0.2548    1.1688    4.0218 H   0  0  0  0  0  0  0  0  0  0  0  0
   -1.0688   -0.4144    4.6146 C   0  0  0  0  0  0  0  0  0  0  0  0
   -1.1596   -1.1289    5.4360 H   0  0  0  0  0  0  0  0  0  0  0  0
   -0.9410   -1.0033    3.7044 H   0  0  0  0  0  0  0  0  0  0  0  0
   -2.3356    0.4259    4.5245 C   0  0  0  0  0  0  0  0  0  0  0  0
   -2.2687    1.1330    3.6967 H   0  0  0  0  0  0  0  0  0  0  0  0
   -3.2210   -0.1901    4.3706 H   0  0  0  0  0  0  0  0  0  0  0  0
   -2.4860    1.0021    5.4377 H   0  0  0  0  0  0  0  0  0  0  0  0
  1  5  1  0  0  0  0
  1  2  1  0  0  0  0
  1  4  1  0  0  0  0
  3  1  1  0  0  0  0
  5  6  2  0  0  0  0
  7  5  1  0  0  0  0
  8  7  1  0  0  0  0
  9  7  1  0  0  0  0
  9 10  1  0  0  0  0
  9 11  1  0  0  0  0
 12  9  1  0  0  0  0
 13 16  1  0  0  0  0
 13 15  1  0  0  0  0
 14 13  1  0  0  0  0
 17 13  1  0  0  0  0
 17 18  1  0  0  0  0
 19 17  1  0  0  0  0
 20 17  1  0  0  0  0
 20 21  1  0  0  0  0
 22 20  1  0  0  0  0
 23 20  1  0  0  0  0
 23 24  1  0  0  0  0
 25 23  1  0  0  0  0
 26 23  1  0  0  0  0
 26 29  1  0  0  0  0
 27 26  1  0  0  0  0
 28 26  1  0  0  0  0
M  END
>  <SMILES>
CC(=O)NC.CCCCC

>  <MoleculeName>
PeptidePentane110

>  <Distance Scale>
1.1

>  <Energy Value>
-3.73

$$$$
/home/S66X8/3139_56BenzeneMeNH2NHpi090.xyz
 OpenBabel06262409173D

 19 18  0  0  0  0  0  0  0  0999 V2000
    0.6923    1.0883    0.3248 C   0  0  0  0  0  0  0  0  0  0  0  0
    1.2819    1.9919    0.2525 H   0  0  0  0  0  0  0  0  0  0  0  0
    1.3182   -0.1569    0.2869 C   0  0  0  0  0  0  0  0  0  0  0  0
    2.3931   -0.2195    0.1884 H   0  0  0  0  0  0  0  0  0  0  0  0
    0.5580   -1.3220    0.3814 C   0  0  0  0  0  0  0  0  0  0  0  0
    1.0439   -2.2876    0.3576 H   0  0  0  0  0  0  0  0  0  0  0  0
   -0.8276   -1.2414    0.5117 C   0  0  0  0  0  0  0  0  0  0  0  0
   -1.4167   -2.1453    0.5853 H   0  0  0  0  0  0  0  0  0  0  0  0
   -1.4534    0.0037    0.5484 C   0  0  0  0  0  0  0  0  0  0  0  0
   -2.5282    0.0657    0.6498 H   0  0  0  0  0  0  0  0  0  0  0  0
   -0.6935    1.1684    0.4562 C   0  0  0  0  0  0  0  0  0  0  0  0
   -1.1787    2.1344    0.4857 H   0  0  0  0  0  0  0  0  0  0  0  0
    0.3022   -0.1976    3.5827 N   0  0  0  0  0  0  0  0  0  0  0  0
    0.4368   -0.1536    2.5796 H   0  0  0  0  0  0  0  0  0  0  0  0
    0.4437    0.7475    3.9152 H   0  0  0  0  0  0  0  0  0  0  0  0
   -1.0739   -0.6040    3.8601 C   0  0  0  0  0  0  0  0  0  0  0  0
   -1.2318   -0.6326    4.9367 H   0  0  0  0  0  0  0  0  0  0  0  0
   -1.8452    0.0364    3.4200 H   0  0  0  0  0  0  0  0  0  0  0  0
   -1.2286   -1.6136    3.4845 H   0  0  0  0  0  0  0  0  0  0  0  0
  1 11  1  0  0  0  0
  2  1  1  0  0  0  0
  3  1  2  0  0  0  0
  3  5  1  0  0  0  0
  4  3  1  0  0  0  0
  5  7  2  0  0  0  0
  6  5  1  0  0  0  0
  7  9  1  0  0  0  0
  7  8  1  0  0  0  0
  9 10  1  0  0  0  0
 11 12  1  0  0  0  0
 11  9  2  0  0  0  0
 13 16  1  0  0  0  0
 13 15  1  0  0  0  0
 14 13  1  0  0  0  0
 16 17  1  0  0  0  0
 18 16  1  0  0  0  0
 19 16  1  0  0  0  0
M  END
>  <SMILES>
c1ccccc1.NC

>  <MoleculeName>
BenzeneMeNH2NHpi090

>  <Distance Scale>
0.9

>  <Energy Value>
-2.51

$$$$
/home/S66X8/2756_08MeOHWater095.xyz
 OpenBabel06262409173D

  9  7  0  0  0  0  0  0  0  0999 V2000
   -0.7866    0.0452   -0.0072 O   0  0  0  0  0  0  0  0  0  0  0  0
    0.1777    0.0127   -0.0068 H   0  0  0  0  0  0  0  0  0  0  0  0
   -1.2480   -1.2903    0.0011 C   0  0  0  0  0  0  0  0  0  0  0  0
   -2.3343   -1.2589    0.0002 H   0  0  0  0  0  0  0  0  0  0  0  0
   -0.9260   -1.8498   -0.8804 H   0  0  0  0  0  0  0  0  0  0  0  0
   -0.9270   -1.8385    0.8901 H   0  0  0  0  0  0  0  0  0  0  0  0
    2.0627   -0.0492   -0.0048 O   0  0  0  0  0  0  0  0  0  0  0  0
    2.5019    0.3390   -0.7647 H   0  0  0  0  0  0  0  0  0  0  0  0
    2.5006    0.3534    0.7483 H   0  0  0  0  0  0  0  0  0  0  0  0
  1  2  1  0  0  0  0
  1  3  1  0  0  0  0
  3  6  1  0  0  0  0
  4  3  1  0  0  0  0
  5  3  1  0  0  0  0
  7  9  1  0  0  0  0
  8  7  1  0  0  0  0
M  END
>  <SMILES>
OC.O

>  <MoleculeName>
MeOHWater095

>  <Distance Scale>
0.95

>  <Energy Value>
-4.95

$$$$
/home/S66X8/3159_58PyridinePyridineCHN110.xyz
 OpenBabel06262409173D

 22 22  0  0  0  0  0  0  0  0999 V2000
   -0.9412    0.7900    0.0117 N   0  0  0  0  0  0  0  0  0  0  0  0
   -0.9228   -0.5524    0.0354 C   0  0  0  0  0  0  0  0  0  0  0  0
    0.0572   -1.0156    0.0514 H   0  0  0  0  0  0  0  0  0  0  0  0
   -2.0765   -1.3330    0.0393 C   0  0  0  0  0  0  0  0  0  0  0  0
   -1.9965   -2.4106    0.0589 H   0  0  0  0  0  0  0  0  0  0  0  0
   -3.3163   -0.7033    0.0176 C   0  0  0  0  0  0  0  0  0  0  0  0
   -4.2316   -1.2791    0.0198 H   0  0  0  0  0  0  0  0  0  0  0  0
   -3.3489    0.6870   -0.0071 C   0  0  0  0  0  0  0  0  0  0  0  0
   -4.2854    1.2261   -0.0247 H   0  0  0  0  0  0  0  0  0  0  0  0
   -2.1431    1.3826   -0.0089 C   0  0  0  0  0  0  0  0  0  0  0  0
   -2.1381    2.4657   -0.0278 H   0  0  0  0  0  0  0  0  0  0  0  0
    2.8867   -0.9406    0.0420 N   0  0  0  0  0  0  0  0  0  0  0  0
    4.0885   -1.5338    0.0441 C   0  0  0  0  0  0  0  0  0  0  0  0
    4.0833   -2.6168    0.0660 H   0  0  0  0  0  0  0  0  0  0  0  0
    5.2945   -0.8389    0.0201 C   0  0  0  0  0  0  0  0  0  0  0  0
    6.2309   -1.3784    0.0232 H   0  0  0  0  0  0  0  0  0  0  0  0
    5.2621    0.5514   -0.0076 C   0  0  0  0  0  0  0  0  0  0  0  0
    6.1775    1.1267   -0.0268 H   0  0  0  0  0  0  0  0  0  0  0  0
    4.0225    1.1817   -0.0101 C   0  0  0  0  0  0  0  0  0  0  0  0
    3.9427    2.2593   -0.0312 H   0  0  0  0  0  0  0  0  0  0  0  0
    2.8685    0.4017    0.0151 C   0  0  0  0  0  0  0  0  0  0  0  0
    1.8886    0.8654    0.0134 H   0  0  0  0  0  0  0  0  0  0  0  0
  1  2  1  0  0  0  0
  2  4  2  0  0  0  0
  2  3  1  0  0  0  0
  4  5  1  0  0  0  0
  6  7  1  0  0  0  0
  6  4  1  0  0  0  0
  8  6  2  0  0  0  0
  9  8  1  0  0  0  0
 10  8  1  0  0  0  0
 10  1  2  0  0  0  0
 11 10  1  0  0  0  0
 12 13  1  0  0  0  0
 13 14  1  0  0  0  0
 15 16  1  0  0  0  0
 15 13  2  0  0  0  0
 17 15  1  0  0  0  0
 18 17  1  0  0  0  0
 19 17  2  0  0  0  0
 19 21  1  0  0  0  0
 20 19  1  0  0  0  0
 21 12  2  0  0  0  0
 22 21  1  0  0  0  0
M  END
>  <SMILES>
n1ccccc1.n1ccccc1

>  <MoleculeName>
PyridinePyridineCHN110

>  <Distance Scale>
1.1

>  <Energy Value>
-3.45

$$$$
/home/S66X8/3143_56BenzeneMeNH2NHpi110.xyz
 OpenBabel06262409173D

 19 18  0  0  0  0  0  0  0  0999 V2000
    0.6923    1.0883    0.3248 C   0  0  0  0  0  0  0  0  0  0  0  0
    1.2819    1.9919    0.2525 H   0  0  0  0  0  0  0  0  0  0  0  0
    1.3182   -0.1569    0.2869 C   0  0  0  0  0  0  0  0  0  0  0  0
    2.3931   -0.2195    0.1884 H   0  0  0  0  0  0  0  0  0  0  0  0
    0.5580   -1.3220    0.3814 C   0  0  0  0  0  0  0  0  0  0  0  0
    1.0439   -2.2876    0.3576 H   0  0  0  0  0  0  0  0  0  0  0  0
   -0.8276   -1.2414    0.5117 C   0  0  0  0  0  0  0  0  0  0  0  0
   -1.4167   -2.1453    0.5853 H   0  0  0  0  0  0  0  0  0  0  0  0
   -1.4534    0.0037    0.5484 C   0  0  0  0  0  0  0  0  0  0  0  0
   -2.5282    0.0657    0.6498 H   0  0  0  0  0  0  0  0  0  0  0  0
   -0.6935    1.1684    0.4562 C   0  0  0  0  0  0  0  0  0  0  0  0
   -1.1787    2.1344    0.4857 H   0  0  0  0  0  0  0  0  0  0  0  0
    0.2449   -0.2506    4.1660 N   0  0  0  0  0  0  0  0  0  0  0  0
    0.3795   -0.2066    3.1629 H   0  0  0  0  0  0  0  0  0  0  0  0
    0.3864    0.6945    4.4984 H   0  0  0  0  0  0  0  0  0  0  0  0
   -1.1312   -0.6570    4.4434 C   0  0  0  0  0  0  0  0  0  0  0  0
   -1.2891   -0.6855    5.5200 H   0  0  0  0  0  0  0  0  0  0  0  0
   -1.9025   -0.0166    4.0033 H   0  0  0  0  0  0  0  0  0  0  0  0
   -1.2859   -1.6666    4.0678 H   0  0  0  0  0  0  0  0  0  0  0  0
  1 11  1  0  0  0  0
  2  1  1  0  0  0  0
  3  1  2  0  0  0  0
  3  5  1  0  0  0  0
  4  3  1  0  0  0  0
  5  7  2  0  0  0  0
  6  5  1  0  0  0  0
  7  9  1  0  0  0  0
  7  8  1  0  0  0  0
  9 10  1  0  0  0  0
 11 12  1  0  0  0  0
 11  9  2  0  0  0  0
 13 16  1  0  0  0  0
 13 15  1  0  0  0  0
 14 13  1  0  0  0  0
 16 17  1  0  0  0  0
 18 16  1  0  0  0  0
 19 16  1  0  0  0  0
M  END
>  <SMILES>
c1ccccc1.NC

>  <MoleculeName>
BenzeneMeNH2NHpi110

>  <Distance Scale>
1.1

>  <Energy Value>
-2.86

$$$$
/home/S66X8/3152_57BenzenePeptideNHpi125.xyz
 OpenBabel06262409173D

 24 23  0  0  0  0  0  0  0  0999 V2000
    0.4088    1.0510    0.3755 C   0  0  0  0  0  0  0  0  0  0  0  0
    1.0119    1.9485    0.3681 H   0  0  0  0  0  0  0  0  0  0  0  0
    1.0192   -0.1998    0.2891 C   0  0  0  0  0  0  0  0  0  0  0  0
    2.0956   -0.2718    0.2172 H   0  0  0  0  0  0  0  0  0  0  0  0
    0.2417   -1.3569    0.2967 C   0  0  0  0  0  0  0  0  0  0  0  0
    0.7152   -2.3266    0.2281 H   0  0  0  0  0  0  0  0  0  0  0  0
   -1.1462   -1.2643    0.3939 C   0  0  0  0  0  0  0  0  0  0  0  0
   -1.7492   -2.1619    0.3994 H   0  0  0  0  0  0  0  0  0  0  0  0
   -1.7573   -0.0140    0.4830 C   0  0  0  0  0  0  0  0  0  0  0  0
   -2.8335    0.0582    0.5590 H   0  0  0  0  0  0  0  0  0  0  0  0
   -0.9797    1.1442    0.4723 C   0  0  0  0  0  0  0  0  0  0  0  0
   -1.4541    2.1140    0.5371 H   0  0  0  0  0  0  0  0  0  0  0  0
    0.2592    1.9883    4.9891 C   0  0  0  0  0  0  0  0  0  0  0  0
   -0.0989    2.1540    3.9758 H   0  0  0  0  0  0  0  0  0  0  0  0
    1.2838    2.3450    5.0705 H   0  0  0  0  0  0  0  0  0  0  0  0
   -0.3449    2.5619    5.6874 H   0  0  0  0  0  0  0  0  0  0  0  0
    0.2224    0.5351    5.4048 C   0  0  0  0  0  0  0  0  0  0  0  0
    0.5070    0.1827    6.5433 O   0  0  0  0  0  0  0  0  0  0  0  0
   -0.1500   -0.3306    4.4256 N   0  0  0  0  0  0  0  0  0  0  0  0
   -0.3112    0.0274    3.4995 H   0  0  0  0  0  0  0  0  0  0  0  0
   -0.1868   -1.7575    4.6436 C   0  0  0  0  0  0  0  0  0  0  0  0
   -0.1087   -1.9244    5.7136 H   0  0  0  0  0  0  0  0  0  0  0  0
   -1.1221   -2.1758    4.2769 H   0  0  0  0  0  0  0  0  0  0  0  0
    0.6423   -2.2614    4.1463 H   0  0  0  0  0  0  0  0  0  0  0  0
  1 11  1  0  0  0  0
  2  1  1  0  0  0  0
  3  5  1  0  0  0  0
  3  1  2  0  0  0  0
  4  3  1  0  0  0  0
  5  7  2  0  0  0  0
  6  5  1  0  0  0  0
  7  8  1  0  0  0  0
  7  9  1  0  0  0  0
  9 10  1  0  0  0  0
 11  9  2  0  0  0  0
 11 12  1  0  0  0  0
 13 15  1  0  0  0  0
 13 17  1  0  0  0  0
 13 16  1  0  0  0  0
 14 13  1  0  0  0  0
 17 18  2  0  0  0  0
 19 21  1  0  0  0  0
 19 17  1  0  0  0  0
 20 19  1  0  0  0  0
 21 22  1  0  0  0  0
 23 21  1  0  0  0  0
 24 21  1  0  0  0  0
M  END
>  <SMILES>
c1ccccc1.CC(=O)NC

>  <MoleculeName>
BenzenePeptideNHpi125

>  <Distance Scale>
1.25

>  <Energy Value>
-3.41

$$$$
/home/S66X8/2825_16PeptideWater150.xyz
 OpenBabel06262409173D

 15 13  0  0  0  0  0  0  0  0999 V2000
   -0.7243   -0.7049    2.2839 C   0  0  0  0  0  0  0  0  0  0  0  0
    0.3353   -0.6299    2.0532 H   0  0  0  0  0  0  0  0  0  0  0  0
   -0.9517   -1.7120    2.6257 H   0  0  0  0  0  0  0  0  0  0  0  0
   -0.9696   -0.0221    3.0938 H   0  0  0  0  0  0  0  0  0  0  0  0
   -1.6149   -0.3874    1.1041 C   0  0  0  0  0  0  0  0  0  0  0  0
   -2.8373   -0.4150    1.1941 O   0  0  0  0  0  0  0  0  0  0  0  0
   -0.9534   -0.0764   -0.0408 N   0  0  0  0  0  0  0  0  0  0  0  0
    0.0538   -0.0756   -0.0366 H   0  0  0  0  0  0  0  0  0  0  0  0
   -1.6581    0.2501   -1.2586 C   0  0  0  0  0  0  0  0  0  0  0  0
   -2.7204    0.1769   -1.0467 H   0  0  0  0  0  0  0  0  0  0  0  0
   -1.4303    1.2630   -1.5881 H   0  0  0  0  0  0  0  0  0  0  0  0
   -1.4056   -0.4443   -2.0586 H   0  0  0  0  0  0  0  0  0  0  0  0
    3.1699   -0.0495   -0.2168 O   0  0  0  0  0  0  0  0  0  0  0  0
    3.7349   -0.7624   -0.5220 H   0  0  0  0  0  0  0  0  0  0  0  0
    3.7497    0.7147   -0.1929 H   0  0  0  0  0  0  0  0  0  0  0  0
  1  3  1  0  0  0  0
  1  4  1  0  0  0  0
  2  1  1  0  0  0  0
  5  6  2  0  0  0  0
  5  1  1  0  0  0  0
  7  8  1  0  0  0  0
  7  5  1  0  0  0  0
  9 10  1  0  0  0  0
  9  7  1  0  0  0  0
 11  9  1  0  0  0  0
 12  9  1  0  0  0  0
 13 15  1  0  0  0  0
 14 13  1  0  0  0  0
M  END
>  <SMILES>
CC(=O)NC.O

>  <MoleculeName>
PeptideWater150

>  <Distance Scale>
1.5

>  <Energy Value>
-2.45

$$$$
/home/S66X8/2818_15PeptidePeptide200.xyz
 OpenBabel06262409173D

 24 22  0  0  0  0  0  0  0  0999 V2000
   -0.7015   -0.2906    2.4069 C   0  0  0  0  0  0  0  0  0  0  0  0
   -1.1833    0.3956    3.0989 H   0  0  0  0  0  0  0  0  0  0  0  0
    0.3496   -0.0303    2.3078 H   0  0  0  0  0  0  0  0  0  0  0  0
   -0.7941   -1.2916    2.8240 H   0  0  0  0  0  0  0  0  0  0  0  0
   -1.4485   -0.2449    1.0918 C   0  0  0  0  0  0  0  0  0  0  0  0
   -2.6605   -0.4285    1.0343 O   0  0  0  0  0  0  0  0  0  0  0  0
   -0.6701    0.0059    0.0098 N   0  0  0  0  0  0  0  0  0  0  0  0
    0.3267    0.1226    0.1416 H   0  0  0  0  0  0  0  0  0  0  0  0
   -1.2271    0.0898   -1.3200 C   0  0  0  0  0  0  0  0  0  0  0  0
   -2.2920   -0.1065   -1.2409 H   0  0  0  0  0  0  0  0  0  0  0  0
   -1.0778    1.0799   -1.7485 H   0  0  0  0  0  0  0  0  0  0  0  0
   -0.7766   -0.6480   -1.9834 H   0  0  0  0  0  0  0  0  0  0  0  0
    4.1991   -2.4835    0.8552 C   0  0  0  0  0  0  0  0  0  0  0  0
    4.7573   -3.3935    0.6493 H   0  0  0  0  0  0  0  0  0  0  0  0
    3.2704   -2.4901    0.2909 H   0  0  0  0  0  0  0  0  0  0  0  0
    3.9399   -2.4601    1.9121 H   0  0  0  0  0  0  0  0  0  0  0  0
    4.9667   -1.2291    0.5190 C   0  0  0  0  0  0  0  0  0  0  0  0
    4.4215   -0.1277    0.4620 O   0  0  0  0  0  0  0  0  0  0  0  0
    6.2935   -1.3979    0.3052 N   0  0  0  0  0  0  0  0  0  0  0  0
    6.6698   -2.3252    0.3820 H   0  0  0  0  0  0  0  0  0  0  0  0
    7.1807   -0.2915    0.0163 C   0  0  0  0  0  0  0  0  0  0  0  0
    6.5665    0.5993   -0.0636 H   0  0  0  0  0  0  0  0  0  0  0  0
    7.9081   -0.1520    0.8137 H   0  0  0  0  0  0  0  0  0  0  0  0
    7.7057   -0.4515   -0.9229 H   0  0  0  0  0  0  0  0  0  0  0  0
  1  4  1  0  0  0  0
  1  2  1  0  0  0  0
  3  1  1  0  0  0  0
  5  1  1  0  0  0  0
  6  5  2  0  0  0  0
  7  8  1  0  0  0  0
  7  5  1  0  0  0  0
  9 10  1  0  0  0  0
  9  7  1  0  0  0  0
 11  9  1  0  0  0  0
 12  9  1  0  0  0  0
 13 16  1  0  0  0  0
 14 13  1  0  0  0  0
 15 13  1  0  0  0  0
 17 13  1  0  0  0  0
 18 17  2  0  0  0  0
 19 20  1  0  0  0  0
 19 17  1  0  0  0  0
 21 19  1  0  0  0  0
 21 23  1  0  0  0  0
 22 21  1  0  0  0  0
 24 21  1  0  0  0  0
M  END
>  <SMILES>
CC(=O)NC.CC(=O)NC

>  <MoleculeName>
PeptidePeptide200

>  <Distance Scale>
2.0

>  <Energy Value>
-1.77

$$$$
/home/S66X8/2904_26UracilUracilpipi125.xyz
 OpenBabel06262409173D

 24 24  0  0  0  0  0  0  0  0999 V2000
    1.3769    0.8397    0.7346 N   0  0  0  0  0  0  0  0  0  0  0  0
    1.0518    1.3862    1.5234 H   0  0  0  0  0  0  0  0  0  0  0  0
    1.3090    1.4575   -0.5207 C   0  0  0  0  0  0  0  0  0  0  0  0
    0.9206    2.6111   -0.6260 O   0  0  0  0  0  0  0  0  0  0  0  0
    2.0114   -1.2132   -0.0981 N   0  0  0  0  0  0  0  0  0  0  0  0
    1.7273    0.9908   -2.6120 H   0  0  0  0  0  0  0  0  0  0  0  0
    2.0257   -0.6972   -1.3644 C   0  0  0  0  0  0  0  0  0  0  0  0
    2.2975   -1.3911   -2.1456 H   0  0  0  0  0  0  0  0  0  0  0  0
    1.7145    0.5919   -1.6125 C   0  0  0  0  0  0  0  0  0  0  0  0
    2.1295   -2.2015    0.0568 H   0  0  0  0  0  0  0  0  0  0  0  0
    1.6459   -0.4852    1.0187 C   0  0  0  0  0  0  0  0  0  0  0  0
    1.5611   -0.9718    2.1298 O   0  0  0  0  0  0  0  0  0  0  0  0
   -2.0595   -0.9576    0.7346 N   0  0  0  0  0  0  0  0  0  0  0  0
   -1.7344   -1.5041    1.5234 H   0  0  0  0  0  0  0  0  0  0  0  0
   -1.9916   -1.5754   -0.5207 C   0  0  0  0  0  0  0  0  0  0  0  0
   -1.6031   -2.7289   -0.6260 O   0  0  0  0  0  0  0  0  0  0  0  0
   -2.6940    1.0954   -0.0981 N   0  0  0  0  0  0  0  0  0  0  0  0
   -2.4099   -1.1087   -2.6120 H   0  0  0  0  0  0  0  0  0  0  0  0
   -2.7083    0.5793   -1.3644 C   0  0  0  0  0  0  0  0  0  0  0  0
   -2.9801    1.2732   -2.1456 H   0  0  0  0  0  0  0  0  0  0  0  0
   -2.3971   -0.7098   -1.6125 C   0  0  0  0  0  0  0  0  0  0  0  0
   -2.8120    2.0837    0.0568 H   0  0  0  0  0  0  0  0  0  0  0  0
   -2.3285    0.3674    1.0187 C   0  0  0  0  0  0  0  0  0  0  0  0
   -2.2437    0.8540    2.1298 O   0  0  0  0  0  0  0  0  0  0  0  0
  1 11  1  0  0  0  0
  1  2  1  0  0  0  0
  3  1  1  0  0  0  0
  4  3  2  0  0  0  0
  5 10  1  0  0  0  0
  5 11  1  0  0  0  0
  6  9  1  0  0  0  0
  7  5  1  0  0  0  0
  8  7  1  0  0  0  0
  9  7  2  0  0  0  0
  9  3  1  0  0  0  0
 11 12  2  0  0  0  0
 13 23  1  0  0  0  0
 13 14  1  0  0  0  0
 15 13  1  0  0  0  0
 16 15  2  0  0  0  0
 17 22  1  0  0  0  0
 17 23  1  0  0  0  0
 18 21  1  0  0  0  0
 19 17  1  0  0  0  0
 20 19  1  0  0  0  0
 21 19  2  0  0  0  0
 21 15  1  0  0  0  0
 23 24  2  0  0  0  0
M  END
>  <SMILES>
[nH]1c(=O)cc[nH]c1=O.[nH]1c(=O)cc[nH]c1=O

>  <MoleculeName>
UracilUracilpipi125

>  <Distance Scale>
1.25

>  <Energy Value>
-6.07

$$$$
/home/S66X8/3029_42UracilCyclopentane100.xyz
 OpenBabel06262409173D

 27 27  0  0  0  0  0  0  0  0999 V2000
    0.1957   -0.8447    0.8238 N   0  0  0  0  0  0  0  0  0  0  0  0
    0.4504   -1.7968    1.0498 H   0  0  0  0  0  0  0  0  0  0  0  0
   -1.1790   -0.5737    0.7595 C   0  0  0  0  0  0  0  0  0  0  0  0
   -1.9936   -1.4563    0.9669 O   0  0  0  0  0  0  0  0  0  0  0  0
   -1.4767    0.8112    0.4376 C   0  0  0  0  0  0  0  0  0  0  0  0
   -2.5064    1.1157    0.3639 H   0  0  0  0  0  0  0  0  0  0  0  0
   -0.4681    1.6830    0.2349 C   0  0  0  0  0  0  0  0  0  0  0  0
   -0.6384    2.7216   -0.0062 H   0  0  0  0  0  0  0  0  0  0  0  0
    0.8456    1.3060    0.3268 N   0  0  0  0  0  0  0  0  0  0  0  0
    1.5897    1.9689    0.1860 H   0  0  0  0  0  0  0  0  0  0  0  0
    1.2543    0.0195    0.6362 C   0  0  0  0  0  0  0  0  0  0  0  0
    2.4223   -0.3017    0.7319 O   0  0  0  0  0  0  0  0  0  0  0  0
    1.0576   -0.8640    4.4272 C   0  0  0  0  0  0  0  0  0  0  0  0
    1.5115   -0.9560    3.4392 H   0  0  0  0  0  0  0  0  0  0  0  0
    1.6021   -1.5280    5.0964 H   0  0  0  0  0  0  0  0  0  0  0  0
    1.1119    0.6020    4.8602 C   0  0  0  0  0  0  0  0  0  0  0  0
    2.0702    1.0749    4.6494 H   0  0  0  0  0  0  0  0  0  0  0  0
    0.9238    0.6836    5.9334 H   0  0  0  0  0  0  0  0  0  0  0  0
   -0.0554    1.2148    4.0894 C   0  0  0  0  0  0  0  0  0  0  0  0
    0.2189    1.3036    3.0359 H   0  0  0  0  0  0  0  0  0  0  0  0
   -0.3399    2.2059    4.4410 H   0  0  0  0  0  0  0  0  0  0  0  0
   -1.1724    0.1772    4.2604 C   0  0  0  0  0  0  0  0  0  0  0  0
   -1.8979    0.2008    3.4491 H   0  0  0  0  0  0  0  0  0  0  0  0
   -1.7165    0.3819    5.1827 H   0  0  0  0  0  0  0  0  0  0  0  0
   -0.4493   -1.1893    4.3641 C   0  0  0  0  0  0  0  0  0  0  0  0
   -0.6920   -1.8335    3.5207 H   0  0  0  0  0  0  0  0  0  0  0  0
   -0.7645   -1.7167    5.2632 H   0  0  0  0  0  0  0  0  0  0  0  0
  1  2  1  0  0  0  0
  3  1  1  0  0  0  0
  3  4  2  0  0  0  0
  5  3  1  0  0  0  0
  6  5  1  0  0  0  0
  7  9  1  0  0  0  0
  7  5  2  0  0  0  0
  8  7  1  0  0  0  0
  9 11  1  0  0  0  0
 10  9  1  0  0  0  0
 11 12  2  0  0  0  0
 11  1  1  0  0  0  0
 13 16  1  0  0  0  0
 13 15  1  0  0  0  0
 14 13  1  0  0  0  0
 16 18  1  0  0  0  0
 17 16  1  0  0  0  0
 19 22  1  0  0  0  0
 19 21  1  0  0  0  0
 19 16  1  0  0  0  0
 20 19  1  0  0  0  0
 22 25  1  0  0  0  0
 22 24  1  0  0  0  0
 23 22  1  0  0  0  0
 25 13  1  0  0  0  0
 25 27  1  0  0  0  0
 26 25  1  0  0  0  0
M  END
>  <SMILES>
[nH]1c(=O)cc[nH]c1=O.C1CCCC1

>  <MoleculeName>
UracilCyclopentane100

>  <Distance Scale>
1.0

>  <Energy Value>
-4.13

$$$$
/home/S66X8/2797_13PeptideMeOH100.xyz
 OpenBabel06262409173D

 18 16  0  0  0  0  0  0  0  0999 V2000
   -0.8493   -0.3395    2.4917 C   0  0  0  0  0  0  0  0  0  0  0  0
    0.1843   -0.0110    2.4162 H   0  0  0  0  0  0  0  0  0  0  0  0
   -0.8825   -1.3421    2.9127 H   0  0  0  0  0  0  0  0  0  0  0  0
   -1.3908    0.3169    3.1684 H   0  0  0  0  0  0  0  0  0  0  0  0
   -1.5640   -0.3533    1.1595 C   0  0  0  0  0  0  0  0  0  0  0  0
   -2.7495   -0.6515    1.0568 O   0  0  0  0  0  0  0  0  0  0  0  0
   -0.8017   -0.0274    0.0883 N   0  0  0  0  0  0  0  0  0  0  0  0
    0.1612    0.2404    0.2187 H   0  0  0  0  0  0  0  0  0  0  0  0
   -1.3853   -0.0024   -1.2341 C   0  0  0  0  0  0  0  0  0  0  0  0
   -1.8916   -0.9428   -1.4401 H   0  0  0  0  0  0  0  0  0  0  0  0
   -2.1200    0.7962   -1.3309 H   0  0  0  0  0  0  0  0  0  0  0  0
   -0.5946    0.1496   -1.9631 H   0  0  0  0  0  0  0  0  0  0  0  0
    2.1619    0.2522    0.4567 O   0  0  0  0  0  0  0  0  0  0  0  0
    2.8827    0.8795    0.5471 H   0  0  0  0  0  0  0  0  0  0  0  0
    2.6809   -1.0532    0.6905 C   0  0  0  0  0  0  0  0  0  0  0  0
    1.8484   -1.7420    0.5850 H   0  0  0  0  0  0  0  0  0  0  0  0
    3.4471   -1.3222   -0.0363 H   0  0  0  0  0  0  0  0  0  0  0  0
    3.0890   -1.1547    1.6962 H   0  0  0  0  0  0  0  0  0  0  0  0
  1  3  1  0  0  0  0
  1  4  1  0  0  0  0
  2  1  1  0  0  0  0
  5  1  1  0  0  0  0
  6  5  2  0  0  0  0
  7  8  1  0  0  0  0
  7  5  1  0  0  0  0
  9  7  1  0  0  0  0
 10  9  1  0  0  0  0
 11  9  1  0  0  0  0
 12  9  1  0  0  0  0
 13 14  1  0  0  0  0
 13 15  1  0  0  0  0
 15 18  1  0  0  0  0
 16 15  1  0  0  0  0
 17 15  1  0  0  0  0
M  END
>  <SMILES>
CC(=O)NC.OC

>  <MoleculeName>
PeptideMeOH100

>  <Distance Scale>
1.0

>  <Energy Value>
-6.18

$$$$
/home/S66X8/2806_14PeptideMeNH2105.xyz
 OpenBabel06262409173D

 19 17  0  0  0  0  0  0  0  0999 V2000
   -0.7786   -0.4633    2.4904 C   0  0  0  0  0  0  0  0  0  0  0  0
    0.2247   -0.0510    2.4135 H   0  0  0  0  0  0  0  0  0  0  0  0
   -0.7225   -1.4871    2.8546 H   0  0  0  0  0  0  0  0  0  0  0  0
   -1.3519    0.1108    3.2137 H   0  0  0  0  0  0  0  0  0  0  0  0
   -1.5205   -0.4566    1.1723 C   0  0  0  0  0  0  0  0  0  0  0  0
   -2.7008   -0.7836    1.0896 O   0  0  0  0  0  0  0  0  0  0  0  0
   -0.7920   -0.0696    0.1006 N   0  0  0  0  0  0  0  0  0  0  0  0
    0.1941    0.1457    0.2029 H   0  0  0  0  0  0  0  0  0  0  0  0
   -1.3978   -0.0561   -1.2113 C   0  0  0  0  0  0  0  0  0  0  0  0
   -2.3149    0.5289   -1.1997 H   0  0  0  0  0  0  0  0  0  0  0  0
   -0.6988    0.3873   -1.9154 H   0  0  0  0  0  0  0  0  0  0  0  0
   -1.6530   -1.0615   -1.5454 H   0  0  0  0  0  0  0  0  0  0  0  0
    2.3585    0.2610    0.2872 N   0  0  0  0  0  0  0  0  0  0  0  0
    2.7622    0.8009    1.0424 H   0  0  0  0  0  0  0  0  0  0  0  0
    2.7765    0.6284   -0.5584 H   0  0  0  0  0  0  0  0  0  0  0  0
    2.7308   -1.1502    0.4410 C   0  0  0  0  0  0  0  0  0  0  0  0
    2.3045   -1.7212   -0.3804 H   0  0  0  0  0  0  0  0  0  0  0  0
    3.8062   -1.3369    0.4667 H   0  0  0  0  0  0  0  0  0  0  0  0
    2.2963   -1.5346    1.3608 H   0  0  0  0  0  0  0  0  0  0  0  0
  1  3  1  0  0  0  0
  1  4  1  0  0  0  0
  2  1  1  0  0  0  0
  5  1  1  0  0  0  0
  6  5  2  0  0  0  0
  7  8  1  0  0  0  0
  7  5  1  0  0  0  0
  9 10  1  0  0  0  0
  9  7  1  0  0  0  0
 11  9  1  0  0  0  0
 12  9  1  0  0  0  0
 13 16  1  0  0  0  0
 13 14  1  0  0  0  0
 15 13  1  0  0  0  0
 16 18  1  0  0  0  0
 16 19  1  0  0  0  0
 17 16  1  0  0  0  0
M  END
>  <SMILES>
CC(=O)NC.NC

>  <MoleculeName>
PeptideMeNH2105

>  <Distance Scale>
1.05

>  <Energy Value>
-7.29

$$$$
/home/S66X8/3058_45EthynePentane200.xyz
 OpenBabel06262409173D

 21 19  0  0  0  0  0  0  0  0999 V2000
   -0.6062    0.0559    0.5890 C   0  0  0  0  0  0  0  0  0  0  0  0
   -1.6680    0.0558    0.5890 H   0  0  0  0  0  0  0  0  0  0  0  0
    0.6058    0.0555    0.5893 C   0  0  0  0  0  0  0  0  0  0  0  0
    1.6677    0.0549    0.5897 H   0  0  0  0  0  0  0  0  0  0  0  0
   -2.5302   -0.4061    7.3424 C   0  0  0  0  0  0  0  0  0  0  0  0
   -2.5386   -1.0680    6.4760 H   0  0  0  0  0  0  0  0  0  0  0  0
   -2.5821   -1.0323    8.2330 H   0  0  0  0  0  0  0  0  0  0  0  0
   -3.4326    0.2028    7.3097 H   0  0  0  0  0  0  0  0  0  0  0  0
   -1.2697    0.4485    7.3535 C   0  0  0  0  0  0  0  0  0  0  0  0
   -1.2863    1.1215    8.2139 H   0  0  0  0  0  0  0  0  0  0  0  0
   -1.2444    1.0827    6.4647 H   0  0  0  0  0  0  0  0  0  0  0  0
    0.0002   -0.3898    7.3940 C   0  0  0  0  0  0  0  0  0  0  0  0
    0.0002   -1.0076    8.2970 H   0  0  0  0  0  0  0  0  0  0  0  0
    0.0003   -1.0781    6.5447 H   0  0  0  0  0  0  0  0  0  0  0  0
    1.2701    0.4486    7.3536 C   0  0  0  0  0  0  0  0  0  0  0  0
    1.2868    1.1215    8.2140 H   0  0  0  0  0  0  0  0  0  0  0  0
    1.2450    1.0827    6.4648 H   0  0  0  0  0  0  0  0  0  0  0  0
    2.5306   -0.4061    7.3426 C   0  0  0  0  0  0  0  0  0  0  0  0
    2.5390   -1.0681    6.4763 H   0  0  0  0  0  0  0  0  0  0  0  0
    3.4330    0.2029    7.3099 H   0  0  0  0  0  0  0  0  0  0  0  0
    2.5825   -1.0323    8.2333 H   0  0  0  0  0  0  0  0  0  0  0  0
  1  2  1  0  0  0  0
  1  3  3  0  0  0  0
  3  4  1  0  0  0  0
  5  9  1  0  0  0  0
  5  7  1  0  0  0  0
  6  5  1  0  0  0  0
  8  5  1  0  0  0  0
  9 12  1  0  0  0  0
  9 10  1  0  0  0  0
 11  9  1  0  0  0  0
 12 13  1  0  0  0  0
 14 12  1  0  0  0  0
 15 12  1  0  0  0  0
 15 16  1  0  0  0  0
 17 15  1  0  0  0  0
 18 15  1  0  0  0  0
 18 21  1  0  0  0  0
 19 18  1  0  0  0  0
 20 18  1  0  0  0  0
M  END
>  <SMILES>
C#C.CCCCC

>  <MoleculeName>
EthynePentane200

>  <Distance Scale>
2.0

>  <Energy Value>
-0.1

$$$$
/home/S66X8/2875_23AcNH2Uracil090.xyz
 OpenBabel06262409173D

 21 20  0  0  0  0  0  0  0  0999 V2000
   -1.2327    1.2116   -0.1416 C   0  0  0  0  0  0  0  0  0  0  0  0
   -0.5713    2.2420    0.0256 O   0  0  0  0  0  0  0  0  0  0  0  0
   -0.6706    0.0039   -0.3143 N   0  0  0  0  0  0  0  0  0  0  0  0
    0.3438   -0.0906   -0.3083 H   0  0  0  0  0  0  0  0  0  0  0  0
   -1.2442   -0.8063   -0.4467 H   0  0  0  0  0  0  0  0  0  0  0  0
   -2.7382    1.2668   -0.1559 C   0  0  0  0  0  0  0  0  0  0  0  0
   -3.0780    1.6466    0.8045 H   0  0  0  0  0  0  0  0  0  0  0  0
   -3.2021    0.3029   -0.3462 H   0  0  0  0  0  0  0  0  0  0  0  0
   -3.0500    1.9755   -0.9186 H   0  0  0  0  0  0  0  0  0  0  0  0
    4.0271    1.1149   -0.1217 N   0  0  0  0  0  0  0  0  0  0  0  0
    4.5172    0.2389   -0.2396 H   0  0  0  0  0  0  0  0  0  0  0  0
    4.8308    2.2577    0.0288 C   0  0  0  0  0  0  0  0  0  0  0  0
    6.0463    2.1621    0.0136 O   0  0  0  0  0  0  0  0  0  0  0  0
    4.0582    3.4731    0.1920 C   0  0  0  0  0  0  0  0  0  0  0  0
    4.5799    4.4063    0.3150 H   0  0  0  0  0  0  0  0  0  0  0  0
    2.7090    3.4114    0.1863 C   0  0  0  0  0  0  0  0  0  0  0  0
    2.0886    4.2877    0.3040 H   0  0  0  0  0  0  0  0  0  0  0  0
    2.0239    2.2391    0.0317 N   0  0  0  0  0  0  0  0  0  0  0  0
    0.9911    2.2300    0.0309 H   0  0  0  0  0  0  0  0  0  0  0  0
    2.6548    1.0346   -0.1305 C   0  0  0  0  0  0  0  0  0  0  0  0
    2.0576   -0.0293   -0.2723 O   0  0  0  0  0  0  0  0  0  0  0  0
  1  2  2  0  0  0  0
  3  4  1  0  0  0  0
  3  1  1  0  0  0  0
  5  3  1  0  0  0  0
  6  1  1  0  0  0  0
  6  7  1  0  0  0  0
  8  6  1  0  0  0  0
  9  6  1  0  0  0  0
 10 12  1  0  0  0  0
 11 10  1  0  0  0  0
 12 14  1  0  0  0  0
 13 12  2  0  0  0  0
 14 15  1  0  0  0  0
 16 14  2  0  0  0  0
 16 17  1  0  0  0  0
 18 16  1  0  0  0  0
 19 18  1  0  0  0  0
 20 10  1  0  0  0  0
 20 18  1  0  0  0  0
 21 20  2  0  0  0  0
M  END
>  <SMILES>
C(=O)(N)C.[nH]1c(=O)cc[nH]c1=O

>  <MoleculeName>
AcNH2Uracil090

>  <Distance Scale>
0.9

>  <Energy Value>
-17.7

$$$$
/home/S66X8/2852_20AcOHAcOH095.xyz
 OpenBabel06262409173D

 16 14  0  0  0  0  0  0  0  0999 V2000
   -1.0617    1.2971    0.2921 C   0  0  0  0  0  0  0  0  0  0  0  0
   -0.3582    2.2705    0.5318 O   0  0  0  0  0  0  0  0  0  0  0  0
   -0.5893    0.0949    0.0038 O   0  0  0  0  0  0  0  0  0  0  0  0
    0.4044    0.1277    0.0184 H   0  0  0  0  0  0  0  0  0  0  0  0
   -2.5584    1.3425    0.2963 C   0  0  0  0  0  0  0  0  0  0  0  0
   -2.8960    2.3475    0.5183 H   0  0  0  0  0  0  0  0  0  0  0  0
   -2.9329    1.0224   -0.6730 H   0  0  0  0  0  0  0  0  0  0  0  0
   -2.9372    0.6449    1.0396 H   0  0  0  0  0  0  0  0  0  0  0  0
    2.7151    1.1081    0.2706 C   0  0  0  0  0  0  0  0  0  0  0  0
    2.0115    0.1348    0.0308 O   0  0  0  0  0  0  0  0  0  0  0  0
    2.2427    2.3105    0.5584 O   0  0  0  0  0  0  0  0  0  0  0  0
    1.2489    2.2776    0.5440 H   0  0  0  0  0  0  0  0  0  0  0  0
    4.2118    1.0622    0.2687 C   0  0  0  0  0  0  0  0  0  0  0  0
    4.5494    0.0609    0.0311 H   0  0  0  0  0  0  0  0  0  0  0  0
    4.5933    1.7725   -0.4608 H   0  0  0  0  0  0  0  0  0  0  0  0
    4.5833    1.3649    1.2447 H   0  0  0  0  0  0  0  0  0  0  0  0
  1  5  1  0  0  0  0
  1  2  2  0  0  0  0
  3  4  1  0  0  0  0
  3  1  1  0  0  0  0
  5  6  1  0  0  0  0
  5  8  1  0  0  0  0
  7  5  1  0  0  0  0
  9 11  1  0  0  0  0
 10  9  2  0  0  0  0
 12 11  1  0  0  0  0
 13  9  1  0  0  0  0
 13 16  1  0  0  0  0
 14 13  1  0  0  0  0
 15 13  1  0  0  0  0
M  END
>  <SMILES>
C(=O)(O)C.C(=O)(O)C

>  <MoleculeName>
AcOHAcOH095

>  <Distance Scale>
0.95

>  <Energy Value>
-18.79

$$$$
/home/S66X8/2970_34PentanePentane200.xyz
 OpenBabel06262409173D

 34 32  0  0  0  0  0  0  0  0999 V2000
   -2.5333   -0.2949    0.7131 C   0  0  0  0  0  0  0  0  0  0  0  0
   -2.5636   -0.9771   -0.1364 H   0  0  0  0  0  0  0  0  0  0  0  0
   -2.5670   -0.8959    1.6217 H   0  0  0  0  0  0  0  0  0  0  0  0
   -3.4344    0.3160    0.6841 H   0  0  0  0  0  0  0  0  0  0  0  0
   -1.2719    0.5577    0.6744 C   0  0  0  0  0  0  0  0  0  0  0  0
   -1.2710    1.2566    1.5143 H   0  0  0  0  0  0  0  0  0  0  0  0
   -1.2666    1.1679   -0.2318 H   0  0  0  0  0  0  0  0  0  0  0  0
   -0.0001   -0.2784    0.7196 C   0  0  0  0  0  0  0  0  0  0  0  0
   -0.0002   -0.8872    1.6286 H   0  0  0  0  0  0  0  0  0  0  0  0
   -0.0004   -0.9807   -0.1194 H   0  0  0  0  0  0  0  0  0  0  0  0
    1.2719    0.5574    0.6741 C   0  0  0  0  0  0  0  0  0  0  0  0
    1.2710    1.2566    1.5137 H   0  0  0  0  0  0  0  0  0  0  0  0
    1.2666    1.1672   -0.2324 H   0  0  0  0  0  0  0  0  0  0  0  0
    2.5334   -0.2949    0.7133 C   0  0  0  0  0  0  0  0  0  0  0  0
    2.5639   -0.9778   -0.1358 H   0  0  0  0  0  0  0  0  0  0  0  0
    3.4343    0.3163    0.6836 H   0  0  0  0  0  0  0  0  0  0  0  0
    2.5676   -0.8952    1.6223 H   0  0  0  0  0  0  0  0  0  0  0  0
    2.5335    0.2400    7.2144 C   0  0  0  0  0  0  0  0  0  0  0  0
    2.5681    0.8398    6.3050 H   0  0  0  0  0  0  0  0  0  0  0  0
    2.5641    0.9232    8.0631 H   0  0  0  0  0  0  0  0  0  0  0  0
    3.4342   -0.3715    7.2446 H   0  0  0  0  0  0  0  0  0  0  0  0
    1.2717   -0.6119    7.2537 C   0  0  0  0  0  0  0  0  0  0  0  0
    1.2663   -1.2216    8.1602 H   0  0  0  0  0  0  0  0  0  0  0  0
    1.2706   -1.3113    6.4141 H   0  0  0  0  0  0  0  0  0  0  0  0
   -0.0001    0.2242    7.2081 C   0  0  0  0  0  0  0  0  0  0  0  0
   -0.0002    0.9265    8.0470 H   0  0  0  0  0  0  0  0  0  0  0  0
    0.0000    0.8330    6.2990 H   0  0  0  0  0  0  0  0  0  0  0  0
   -1.2718   -0.6119    7.2533 C   0  0  0  0  0  0  0  0  0  0  0  0
   -1.2664   -1.2220    8.1596 H   0  0  0  0  0  0  0  0  0  0  0  0
   -1.2707   -1.3110    6.4135 H   0  0  0  0  0  0  0  0  0  0  0  0
   -2.5335    0.2401    7.2144 C   0  0  0  0  0  0  0  0  0  0  0  0
   -2.5677    0.8406    6.3055 H   0  0  0  0  0  0  0  0  0  0  0  0
   -3.4343   -0.3712    7.2439 H   0  0  0  0  0  0  0  0  0  0  0  0
   -2.5641    0.9227    8.0636 H   0  0  0  0  0  0  0  0  0  0  0  0
  1  3  1  0  0  0  0
  2  1  1  0  0  0  0
  4  1  1  0  0  0  0
  5  1  1  0  0  0  0
  5  8  1  0  0  0  0
  5  6  1  0  0  0  0
  7  5  1  0  0  0  0
  8  9  1  0  0  0  0
 10  8  1  0  0  0  0
 11 14  1  0  0  0  0
 11  8  1  0  0  0  0
 11 12  1  0  0  0  0
 13 11  1  0  0  0  0
 14 17  1  0  0  0  0
 15 14  1  0  0  0  0
 16 14  1  0  0  0  0
 18 21  1  0  0  0  0
 18 22  1  0  0  0  0
 18 20  1  0  0  0  0
 19 18  1  0  0  0  0
 22 23  1  0  0  0  0
 24 22  1  0  0  0  0
 25 28  1  0  0  0  0
 25 22  1  0  0  0  0
 25 26  1  0  0  0  0
 27 25  1  0  0  0  0
 28 29  1  0  0  0  0
 30 28  1  0  0  0  0
 31 33  1  0  0  0  0
 31 28  1  0  0  0  0
 31 34  1  0  0  0  0
 32 31  1  0  0  0  0
M  END
>  <SMILES>
CCCCC.CCCCC

>  <MoleculeName>
PentanePentane200

>  <Distance Scale>
2.0

>  <Energy Value>
-0.27

$$$$
/home/S66X8/2965_34PentanePentane100.xyz
 OpenBabel06262409173D

 34 32  0  0  0  0  0  0  0  0999 V2000
   -2.5333   -0.2949    0.7131 C   0  0  0  0  0  0  0  0  0  0  0  0
   -2.5636   -0.9771   -0.1364 H   0  0  0  0  0  0  0  0  0  0  0  0
   -2.5670   -0.8959    1.6217 H   0  0  0  0  0  0  0  0  0  0  0  0
   -3.4344    0.3160    0.6841 H   0  0  0  0  0  0  0  0  0  0  0  0
   -1.2719    0.5577    0.6744 C   0  0  0  0  0  0  0  0  0  0  0  0
   -1.2710    1.2566    1.5143 H   0  0  0  0  0  0  0  0  0  0  0  0
   -1.2666    1.1679   -0.2318 H   0  0  0  0  0  0  0  0  0  0  0  0
   -0.0001   -0.2784    0.7196 C   0  0  0  0  0  0  0  0  0  0  0  0
   -0.0002   -0.8872    1.6286 H   0  0  0  0  0  0  0  0  0  0  0  0
   -0.0004   -0.9807   -0.1194 H   0  0  0  0  0  0  0  0  0  0  0  0
    1.2719    0.5574    0.6741 C   0  0  0  0  0  0  0  0  0  0  0  0
    1.2710    1.2566    1.5137 H   0  0  0  0  0  0  0  0  0  0  0  0
    1.2666    1.1672   -0.2324 H   0  0  0  0  0  0  0  0  0  0  0  0
    2.5334   -0.2949    0.7133 C   0  0  0  0  0  0  0  0  0  0  0  0
    2.5639   -0.9778   -0.1358 H   0  0  0  0  0  0  0  0  0  0  0  0
    3.4343    0.3163    0.6836 H   0  0  0  0  0  0  0  0  0  0  0  0
    2.5676   -0.8952    1.6223 H   0  0  0  0  0  0  0  0  0  0  0  0
    2.5336    0.2946    4.5322 C   0  0  0  0  0  0  0  0  0  0  0  0
    2.5681    0.8944    3.6229 H   0  0  0  0  0  0  0  0  0  0  0  0
    2.5641    0.9778    5.3810 H   0  0  0  0  0  0  0  0  0  0  0  0
    3.4342   -0.3169    4.5624 H   0  0  0  0  0  0  0  0  0  0  0  0
    1.2717   -0.5573    4.5715 C   0  0  0  0  0  0  0  0  0  0  0  0
    1.2663   -1.1670    5.4780 H   0  0  0  0  0  0  0  0  0  0  0  0
    1.2706   -1.2566    3.7319 H   0  0  0  0  0  0  0  0  0  0  0  0
   -0.0000    0.2788    4.5259 C   0  0  0  0  0  0  0  0  0  0  0  0
   -0.0002    0.9812    5.3649 H   0  0  0  0  0  0  0  0  0  0  0  0
    0.0000    0.8876    3.6168 H   0  0  0  0  0  0  0  0  0  0  0  0
   -1.2718   -0.5573    4.5712 C   0  0  0  0  0  0  0  0  0  0  0  0
   -1.2664   -1.1674    5.4774 H   0  0  0  0  0  0  0  0  0  0  0  0
   -1.2707   -1.2563    3.7313 H   0  0  0  0  0  0  0  0  0  0  0  0
   -2.5335    0.2947    4.5322 C   0  0  0  0  0  0  0  0  0  0  0  0
   -2.5677    0.8953    3.6233 H   0  0  0  0  0  0  0  0  0  0  0  0
   -3.4343   -0.3166    4.5617 H   0  0  0  0  0  0  0  0  0  0  0  0
   -2.5641    0.9773    5.3815 H   0  0  0  0  0  0  0  0  0  0  0  0
  1  3  1  0  0  0  0
  2  1  1  0  0  0  0
  4  1  1  0  0  0  0
  5  1  1  0  0  0  0
  5  8  1  0  0  0  0
  5  6  1  0  0  0  0
  7  5  1  0  0  0  0
  8  9  1  0  0  0  0
 10  8  1  0  0  0  0
 11 14  1  0  0  0  0
 11  8  1  0  0  0  0
 11 12  1  0  0  0  0
 13 11  1  0  0  0  0
 14 17  1  0  0  0  0
 15 14  1  0  0  0  0
 16 14  1  0  0  0  0
 18 21  1  0  0  0  0
 18 22  1  0  0  0  0
 18 20  1  0  0  0  0
 19 18  1  0  0  0  0
 22 23  1  0  0  0  0
 24 22  1  0  0  0  0
 25 28  1  0  0  0  0
 25 22  1  0  0  0  0
 25 26  1  0  0  0  0
 27 25  1  0  0  0  0
 28 29  1  0  0  0  0
 30 28  1  0  0  0  0
 31 33  1  0  0  0  0
 31 28  1  0  0  0  0
 31 34  1  0  0  0  0
 32 31  1  0  0  0  0
M  END
>  <SMILES>
CCCCC.CCCCC

>  <MoleculeName>
PentanePentane100

>  <Distance Scale>
1.0

>  <Energy Value>
-3.77

$$$$
/home/S66X8/3075_48PyridinePyridineTS090.xyz
 OpenBabel06262409173D

 22 22  0  0  0  0  0  0  0  0999 V2000
    1.3228   -0.0104    1.0192 N   0  0  0  0  0  0  0  0  0  0  0  0
    0.6513   -1.1490    0.7968 C   0  0  0  0  0  0  0  0  0  0  0  0
    1.2004   -2.0655    0.9737 H   0  0  0  0  0  0  0  0  0  0  0  0
   -0.6727   -1.1947    0.3667 C   0  0  0  0  0  0  0  0  0  0  0  0
   -1.1572   -2.1473    0.2065 H   0  0  0  0  0  0  0  0  0  0  0  0
   -1.3472    0.0031    0.1521 C   0  0  0  0  0  0  0  0  0  0  0  0
   -2.3754    0.0084   -0.1823 H   0  0  0  0  0  0  0  0  0  0  0  0
   -0.6646    1.1941    0.3790 C   0  0  0  0  0  0  0  0  0  0  0  0
   -1.1426    2.1516    0.2287 H   0  0  0  0  0  0  0  0  0  0  0  0
    0.6589    1.1350    0.8089 C   0  0  0  0  0  0  0  0  0  0  0  0
    1.2141    2.0459    0.9954 H   0  0  0  0  0  0  0  0  0  0  0  0
    0.5388    0.0031    6.4809 N   0  0  0  0  0  0  0  0  0  0  0  0
    1.4094   -0.0026    5.4615 C   0  0  0  0  0  0  0  0  0  0  0  0
    2.4573   -0.0013    5.7358 H   0  0  0  0  0  0  0  0  0  0  0  0
    1.0361   -0.0096    4.1196 C   0  0  0  0  0  0  0  0  0  0  0  0
    1.7835   -0.0138    3.3385 H   0  0  0  0  0  0  0  0  0  0  0  0
   -0.3200   -0.0110    3.8072 C   0  0  0  0  0  0  0  0  0  0  0  0
   -0.6497   -0.0165    2.7769 H   0  0  0  0  0  0  0  0  0  0  0  0
   -1.2381   -0.0053    4.8524 C   0  0  0  0  0  0  0  0  0  0  0  0
   -2.3025   -0.0062    4.6636 H   0  0  0  0  0  0  0  0  0  0  0  0
   -0.7625    0.0016    6.1613 C   0  0  0  0  0  0  0  0  0  0  0  0
   -1.4547    0.0062    6.9945 H   0  0  0  0  0  0  0  0  0  0  0  0
  2  3  1  0  0  0  0
  2  1  2  0  0  0  0
  4  2  1  0  0  0  0
  5  4  1  0  0  0  0
  6  4  2  0  0  0  0
  6  8  1  0  0  0  0
  7  6  1  0  0  0  0
  8 10  2  0  0  0  0
  9  8  1  0  0  0  0
 10 11  1  0  0  0  0
 10  1  1  0  0  0  0
 13 14  1  0  0  0  0
 13 12  2  0  0  0  0
 15 13  1  0  0  0  0
 16 15  1  0  0  0  0
 17 15  2  0  0  0  0
 17 19  1  0  0  0  0
 18 17  1  0  0  0  0
 19 21  2  0  0  0  0
 20 19  1  0  0  0  0
 21 12  1  0  0  0  0
 21 22  1  0  0  0  0
M  END
>  <SMILES>
n1ccccc1.n1ccccc1

>  <MoleculeName>
PyridinePyridineTS090

>  <Distance Scale>
0.9

>  <Energy Value>
-2.53

$$$$
/home/S66X8/2738_05MeOHMeOH200.xyz
 OpenBabel06262409173D

 12 10  0  0  0  0  0  0  0  0999 V2000
   -0.6361   -0.0233    0.2806 O   0  0  0  0  0  0  0  0  0  0  0  0
    0.3081   -0.0471    0.0765 H   0  0  0  0  0  0  0  0  0  0  0  0
   -1.1521   -1.3113    0.0153 C   0  0  0  0  0  0  0  0  0  0  0  0
   -2.2099   -1.2963    0.2640 H   0  0  0  0  0  0  0  0  0  0  0  0
   -1.0566   -1.5927   -1.0362 H   0  0  0  0  0  0  0  0  0  0  0  0
   -0.6748   -2.0863    0.6205 H   0  0  0  0  0  0  0  0  0  0  0  0
    4.1745   -0.1996   -0.1035 O   0  0  0  0  0  0  0  0  0  0  0  0
    4.6433    0.4148   -0.6732 H   0  0  0  0  0  0  0  0  0  0  0  0
    4.6833   -0.0426    1.2182 C   0  0  0  0  0  0  0  0  0  0  0  0
    4.1298   -0.7308    1.8483 H   0  0  0  0  0  0  0  0  0  0  0  0
    5.7423   -0.2930    1.2749 H   0  0  0  0  0  0  0  0  0  0  0  0
    4.5309    0.9681    1.5961 H   0  0  0  0  0  0  0  0  0  0  0  0
  2  1  1  0  0  0  0
  3  4  1  0  0  0  0
  3  1  1  0  0  0  0
  3  6  1  0  0  0  0
  5  3  1  0  0  0  0
  7  9  1  0  0  0  0
  8  7  1  0  0  0  0
  9 11  1  0  0  0  0
  9 12  1  0  0  0  0
  9 10  1  0  0  0  0
M  END
>  <SMILES>
OC.OC

>  <MoleculeName>
MeOHMeOH200

>  <Distance Scale>
2.0

>  <Energy Value>
-1.01

$$$$
/home/S66X8/3177_60EthyneAcOHOHpi150.xyz
 OpenBabel06262409173D

 12 10  0  0  0  0  0  0  0  0999 V2000
   -0.6106    0.2275   -0.1706 C   0  0  0  0  0  0  0  0  0  0  0  0
    0.1074    0.8614   -0.6342 H   0  0  0  0  0  0  0  0  0  0  0  0
   -1.3863   -0.5253    0.3800 C   0  0  0  0  0  0  0  0  0  0  0  0
   -2.0807   -1.1741    0.8544 H   0  0  0  0  0  0  0  0  0  0  0  0
    3.8946   -1.1126    0.8123 C   0  0  0  0  0  0  0  0  0  0  0  0
    3.6404   -0.1565    0.1134 O   0  0  0  0  0  0  0  0  0  0  0  0
    2.9467   -1.8870    1.3799 O   0  0  0  0  0  0  0  0  0  0  0  0
    2.0857   -1.5197    1.1122 H   0  0  0  0  0  0  0  0  0  0  0  0
    5.2702   -1.5941    1.1624 C   0  0  0  0  0  0  0  0  0  0  0  0
    6.0086   -0.9565    0.6916 H   0  0  0  0  0  0  0  0  0  0  0  0
    5.3964   -1.5822    2.2424 H   0  0  0  0  0  0  0  0  0  0  0  0
    5.3925   -2.6219    0.8292 H   0  0  0  0  0  0  0  0  0  0  0  0
  1  3  3  0  0  0  0
  2  1  1  0  0  0  0
  3  4  1  0  0  0  0
  5  9  1  0  0  0  0
  5  7  1  0  0  0  0
  6  5  2  0  0  0  0
  8  7  1  0  0  0  0
  9 11  1  0  0  0  0
 10  9  1  0  0  0  0
 12  9  1  0  0  0  0
M  END
>  <SMILES>
C#C.C(=O)(O)C

>  <MoleculeName>
EthyneAcOHOHpi150

>  <Distance Scale>
1.5

>  <Energy Value>
-1.77

$$$$
/home/S66X8/3145_56BenzeneMeNH2NHpi150.xyz
 OpenBabel06262409173D

 19 18  0  0  0  0  0  0  0  0999 V2000
    0.6923    1.0883    0.3248 C   0  0  0  0  0  0  0  0  0  0  0  0
    1.2819    1.9919    0.2525 H   0  0  0  0  0  0  0  0  0  0  0  0
    1.3182   -0.1569    0.2869 C   0  0  0  0  0  0  0  0  0  0  0  0
    2.3931   -0.2195    0.1884 H   0  0  0  0  0  0  0  0  0  0  0  0
    0.5580   -1.3220    0.3814 C   0  0  0  0  0  0  0  0  0  0  0  0
    1.0439   -2.2876    0.3576 H   0  0  0  0  0  0  0  0  0  0  0  0
   -0.8276   -1.2414    0.5117 C   0  0  0  0  0  0  0  0  0  0  0  0
   -1.4167   -2.1453    0.5853 H   0  0  0  0  0  0  0  0  0  0  0  0
   -1.4534    0.0037    0.5484 C   0  0  0  0  0  0  0  0  0  0  0  0
   -2.5282    0.0657    0.6498 H   0  0  0  0  0  0  0  0  0  0  0  0
   -0.6935    1.1684    0.4562 C   0  0  0  0  0  0  0  0  0  0  0  0
   -1.1787    2.1344    0.4857 H   0  0  0  0  0  0  0  0  0  0  0  0
    0.1287   -0.3582    5.3500 N   0  0  0  0  0  0  0  0  0  0  0  0
    0.2633   -0.3142    4.3469 H   0  0  0  0  0  0  0  0  0  0  0  0
    0.2702    0.5870    5.6825 H   0  0  0  0  0  0  0  0  0  0  0  0
   -1.2474   -0.7646    5.6274 C   0  0  0  0  0  0  0  0  0  0  0  0
   -1.4053   -0.7931    6.7040 H   0  0  0  0  0  0  0  0  0  0  0  0
   -2.0187   -0.1242    5.1873 H   0  0  0  0  0  0  0  0  0  0  0  0
   -1.4021   -1.7741    5.2518 H   0  0  0  0  0  0  0  0  0  0  0  0
  1 11  1  0  0  0  0
  2  1  1  0  0  0  0
  3  1  2  0  0  0  0
  3  5  1  0  0  0  0
  4  3  1  0  0  0  0
  5  7  2  0  0  0  0
  6  5  1  0  0  0  0
  7  9  1  0  0  0  0
  7  8  1  0  0  0  0
  9 10  1  0  0  0  0
 11 12  1  0  0  0  0
 11  9  2  0  0  0  0
 13 16  1  0  0  0  0
 13 15  1  0  0  0  0
 14 13  1  0  0  0  0
 16 17  1  0  0  0  0
 18 16  1  0  0  0  0
 19 16  1  0  0  0  0
M  END
>  <SMILES>
c1ccccc1.NC

>  <MoleculeName>
BenzeneMeNH2NHpi150

>  <Distance Scale>
1.5

>  <Energy Value>
-0.94

$$$$
/home/S66X8/2931_30BenzeneEthene090.xyz
 OpenBabel06262409173D

 18 17  0  0  0  0  0  0  0  0999 V2000
    0.8355    1.1152    0.0214 C   0  0  0  0  0  0  0  0  0  0  0  0
    1.4843    1.9806    0.0195 H   0  0  0  0  0  0  0  0  0  0  0  0
    1.3833   -0.1661    0.0238 C   0  0  0  0  0  0  0  0  0  0  0  0
    2.4571   -0.2952    0.0228 H   0  0  0  0  0  0  0  0  0  0  0  0
    0.5476   -1.2813    0.0217 C   0  0  0  0  0  0  0  0  0  0  0  0
    0.9729   -2.2758    0.0198 H   0  0  0  0  0  0  0  0  0  0  0  0
   -0.8355   -1.1152    0.0214 C   0  0  0  0  0  0  0  0  0  0  0  0
   -1.4843   -1.9806    0.0195 H   0  0  0  0  0  0  0  0  0  0  0  0
   -1.3833    0.1662    0.0238 C   0  0  0  0  0  0  0  0  0  0  0  0
   -2.4572    0.2952    0.0228 H   0  0  0  0  0  0  0  0  0  0  0  0
   -0.5476    1.2813    0.0217 C   0  0  0  0  0  0  0  0  0  0  0  0
   -0.9729    2.2758    0.0198 H   0  0  0  0  0  0  0  0  0  0  0  0
    0.6558   -0.1168    3.1070 C   0  0  0  0  0  0  0  0  0  0  0  0
    1.0472   -1.1239    3.1025 H   0  0  0  0  0  0  0  0  0  0  0  0
    1.3709    0.6933    3.1025 H   0  0  0  0  0  0  0  0  0  0  0  0
   -0.6558    0.1168    3.1070 C   0  0  0  0  0  0  0  0  0  0  0  0
   -1.3708   -0.6933    3.1025 H   0  0  0  0  0  0  0  0  0  0  0  0
   -1.0472    1.1239    3.1025 H   0  0  0  0  0  0  0  0  0  0  0  0
  1 11  2  0  0  0  0
  1  3  1  0  0  0  0
  2  1  1  0  0  0  0
  4  3  1  0  0  0  0
  5  3  2  0  0  0  0
  6  5  1  0  0  0  0
  7  5  1  0  0  0  0
  7  9  2  0  0  0  0
  8  7  1  0  0  0  0
 10  9  1  0  0  0  0
 11  9  1  0  0  0  0
 12 11  1  0  0  0  0
 13 16  2  0  0  0  0
 14 13  1  0  0  0  0
 15 13  1  0  0  0  0
 17 16  1  0  0  0  0
 18 16  1  0  0  0  0
M  END
>  <SMILES>
c1ccccc1.C=C

>  <MoleculeName>
BenzeneEthene090

>  <Distance Scale>
0.9

>  <Energy Value>
-0.26

$$$$
/home/S66X8/2708_02WaterMeOH095.xyz
 OpenBabel06262409173D

  9  7  0  0  0  0  0  0  0  0999 V2000
   -0.5253   -0.0510   -0.3145 O   0  0  0  0  0  0  0  0  0  0  0  0
   -0.9420    0.7479    0.0113 H   0  0  0  0  0  0  0  0  0  0  0  0
    0.4037    0.0598   -0.0736 H   0  0  0  0  0  0  0  0  0  0  0  0
    2.2626    0.0459    0.0678 O   0  0  0  0  0  0  0  0  0  0  0  0
    2.6306   -0.5262    0.7453 H   0  0  0  0  0  0  0  0  0  0  0  0
    2.7276   -0.4257   -1.1944 C   0  0  0  0  0  0  0  0  0  0  0  0
    2.2968    0.2254   -1.9475 H   0  0  0  0  0  0  0  0  0  0  0  0
    3.8136   -0.3749   -1.2687 H   0  0  0  0  0  0  0  0  0  0  0  0
    2.3993   -1.4456   -1.3935 H   0  0  0  0  0  0  0  0  0  0  0  0
  1  3  1  0  0  0  0
  1  2  1  0  0  0  0
  4  5  1  0  0  0  0
  6  4  1  0  0  0  0
  7  6  1  0  0  0  0
  8  6  1  0  0  0  0
  9  6  1  0  0  0  0
M  END
>  <SMILES>
O.OC

>  <MoleculeName>
WaterMeOH095

>  <Distance Scale>
0.95

>  <Energy Value>
-5.55

$$$$
/home/S66X8/2792_12MeNH2Water125.xyz
 OpenBabel06262409173D

 10  8  0  0  0  0  0  0  0  0999 V2000
   -0.5335   -0.2796    0.1070 N   0  0  0  0  0  0  0  0  0  0  0  0
   -0.6292   -1.2484    0.3828 H   0  0  0  0  0  0  0  0  0  0  0  0
   -1.1226   -0.1662   -0.7078 H   0  0  0  0  0  0  0  0  0  0  0  0
   -1.0169    0.5885    1.1874 C   0  0  0  0  0  0  0  0  0  0  0  0
   -0.9128    1.6256    0.8795 H   0  0  0  0  0  0  0  0  0  0  0  0
   -2.0547    0.4151    1.4785 H   0  0  0  0  0  0  0  0  0  0  0  0
   -0.3850    0.4488    2.0606 H   0  0  0  0  0  0  0  0  0  0  0  0
    2.5903    1.1098    0.1934 O   0  0  0  0  0  0  0  0  0  0  0  0
    1.7727    0.6135    0.0203 H   0  0  0  0  0  0  0  0  0  0  0  0
    3.1722    0.8513   -0.5223 H   0  0  0  0  0  0  0  0  0  0  0  0
  1  2  1  0  0  0  0
  1  4  1  0  0  0  0
  3  1  1  0  0  0  0
  4  6  1  0  0  0  0
  4  7  1  0  0  0  0
  5  4  1  0  0  0  0
  9  8  1  0  0  0  0
 10  8  1  0  0  0  0
M  END
>  <SMILES>
NC.O

>  <MoleculeName>
MeNH2Water125

>  <Distance Scale>
1.25

>  <Energy Value>
-5.22

$$$$
/home/S66X8/3167_59EthyneWaterCHO110.xyz
 OpenBabel06262409173D

  7  5  0  0  0  0  0  0  0  0999 V2000
   -1.0069   -0.0306   -0.0248 C   0  0  0  0  0  0  0  0  0  0  0  0
    0.0590   -0.0609   -0.0494 H   0  0  0  0  0  0  0  0  0  0  0  0
   -2.2187    0.0032    0.0026 C   0  0  0  0  0  0  0  0  0  0  0  0
   -3.2793    0.0335    0.0272 H   0  0  0  0  0  0  0  0  0  0  0  0
    2.5116   -0.1551   -0.1229 O   0  0  0  0  0  0  0  0  0  0  0  0
    3.0820   -0.7448    0.3741 H   0  0  0  0  0  0  0  0  0  0  0  0
    3.0836    0.1959   -0.8083 H   0  0  0  0  0  0  0  0  0  0  0  0
  1  3  3  0  0  0  0
  2  1  1  0  0  0  0
  3  4  1  0  0  0  0
  5  6  1  0  0  0  0
  7  5  1  0  0  0  0
M  END
>  <SMILES>
C#C.O

>  <MoleculeName>
EthyneWaterCHO110

>  <Distance Scale>
1.1

>  <Energy Value>
-2.6

$$$$
/home/S66X8/2880_23AcNH2Uracil125.xyz
 OpenBabel06262409173D

 21 20  0  0  0  0  0  0  0  0999 V2000
   -1.2327    1.2116   -0.1416 C   0  0  0  0  0  0  0  0  0  0  0  0
   -0.5713    2.2420    0.0256 O   0  0  0  0  0  0  0  0  0  0  0  0
   -0.6706    0.0039   -0.3143 N   0  0  0  0  0  0  0  0  0  0  0  0
    0.3438   -0.0906   -0.3083 H   0  0  0  0  0  0  0  0  0  0  0  0
   -1.2442   -0.8063   -0.4467 H   0  0  0  0  0  0  0  0  0  0  0  0
   -2.7382    1.2668   -0.1559 C   0  0  0  0  0  0  0  0  0  0  0  0
   -3.0780    1.6466    0.8045 H   0  0  0  0  0  0  0  0  0  0  0  0
   -3.2021    0.3029   -0.3462 H   0  0  0  0  0  0  0  0  0  0  0  0
   -3.0500    1.9755   -0.9186 H   0  0  0  0  0  0  0  0  0  0  0  0
    4.6347    1.1240   -0.1140 N   0  0  0  0  0  0  0  0  0  0  0  0
    5.1248    0.2481   -0.2319 H   0  0  0  0  0  0  0  0  0  0  0  0
    5.4384    2.2669    0.0365 C   0  0  0  0  0  0  0  0  0  0  0  0
    6.6539    2.1713    0.0213 O   0  0  0  0  0  0  0  0  0  0  0  0
    4.6658    3.4822    0.1996 C   0  0  0  0  0  0  0  0  0  0  0  0
    5.1875    4.4154    0.3227 H   0  0  0  0  0  0  0  0  0  0  0  0
    3.3166    3.4205    0.1939 C   0  0  0  0  0  0  0  0  0  0  0  0
    2.6962    4.2969    0.3116 H   0  0  0  0  0  0  0  0  0  0  0  0
    2.6315    2.2482    0.0394 N   0  0  0  0  0  0  0  0  0  0  0  0
    1.5987    2.2392    0.0385 H   0  0  0  0  0  0  0  0  0  0  0  0
    3.2624    1.0438   -0.1229 C   0  0  0  0  0  0  0  0  0  0  0  0
    2.6652   -0.0201   -0.2647 O   0  0  0  0  0  0  0  0  0  0  0  0
  1  2  2  0  0  0  0
  3  4  1  0  0  0  0
  3  1  1  0  0  0  0
  5  3  1  0  0  0  0
  6  1  1  0  0  0  0
  6  7  1  0  0  0  0
  8  6  1  0  0  0  0
  9  6  1  0  0  0  0
 10 12  1  0  0  0  0
 11 10  1  0  0  0  0
 12 14  1  0  0  0  0
 13 12  2  0  0  0  0
 14 15  1  0  0  0  0
 16 14  2  0  0  0  0
 16 17  1  0  0  0  0
 18 16  1  0  0  0  0
 19 18  1  0  0  0  0
 20 10  1  0  0  0  0
 20 18  1  0  0  0  0
 21 20  2  0  0  0  0
M  END
>  <SMILES>
C(=O)(N)C.[nH]1c(=O)cc[nH]c1=O

>  <MoleculeName>
AcNH2Uracil125

>  <Distance Scale>
1.25

>  <Energy Value>
-15.21

$$$$
/home/S66X8/2839_18WaterPyridine110.xyz
 OpenBabel06262409173D

 14 13  0  0  0  0  0  0  0  0999 V2000
   -0.5528   -0.1017   -0.0005 O   0  0  0  0  0  0  0  0  0  0  0  0
   -0.8718    0.8018    0.0001 H   0  0  0  0  0  0  0  0  0  0  0  0
    0.4127   -0.0018   -0.0003 H   0  0  0  0  0  0  0  0  0  0  0  0
    2.6050    0.1088    0.0002 N   0  0  0  0  0  0  0  0  0  0  0  0
    3.3009    0.0748    1.1449 C   0  0  0  0  0  0  0  0  0  0  0  0
    2.7163    0.0984    2.0558 H   0  0  0  0  0  0  0  0  0  0  0  0
    4.6900    0.0096    1.1949 C   0  0  0  0  0  0  0  0  0  0  0  0
    5.1959   -0.0152    2.1493 H   0  0  0  0  0  0  0  0  0  0  0  0
    5.4011   -0.0235    0.0000 C   0  0  0  0  0  0  0  0  0  0  0  0
    6.4810   -0.0753   -0.0001 H   0  0  0  0  0  0  0  0  0  0  0  0
    4.6898    0.0096   -1.1948 C   0  0  0  0  0  0  0  0  0  0  0  0
    5.1956   -0.0153   -2.1492 H   0  0  0  0  0  0  0  0  0  0  0  0
    3.3008    0.0748   -1.1446 C   0  0  0  0  0  0  0  0  0  0  0  0
    2.7160    0.0984   -2.0554 H   0  0  0  0  0  0  0  0  0  0  0  0
  1  3  1  0  0  0  0
  1  2  1  0  0  0  0
  4  5  1  0  0  0  0
  5  7  2  0  0  0  0
  5  6  1  0  0  0  0
  7  8  1  0  0  0  0
  9  7  1  0  0  0  0
 10  9  1  0  0  0  0
 11 13  1  0  0  0  0
 11  9  2  0  0  0  0
 12 11  1  0  0  0  0
 13  4  2  0  0  0  0
 14 13  1  0  0  0  0
M  END
>  <SMILES>
O.n1ccccc1

>  <MoleculeName>
WaterPyridine110

>  <Distance Scale>
1.1

>  <Energy Value>
-6.27

$$$$
/home/S66X8/3162_58PyridinePyridineCHN200.xyz
 OpenBabel06262409173D

 22 22  0  0  0  0  0  0  0  0999 V2000
   -0.9412    0.7900    0.0117 N   0  0  0  0  0  0  0  0  0  0  0  0
   -0.9228   -0.5524    0.0354 C   0  0  0  0  0  0  0  0  0  0  0  0
    0.0572   -1.0156    0.0514 H   0  0  0  0  0  0  0  0  0  0  0  0
   -2.0765   -1.3330    0.0393 C   0  0  0  0  0  0  0  0  0  0  0  0
   -1.9965   -2.4106    0.0589 H   0  0  0  0  0  0  0  0  0  0  0  0
   -3.3163   -0.7033    0.0176 C   0  0  0  0  0  0  0  0  0  0  0  0
   -4.2316   -1.2791    0.0198 H   0  0  0  0  0  0  0  0  0  0  0  0
   -3.3489    0.6870   -0.0071 C   0  0  0  0  0  0  0  0  0  0  0  0
   -4.2854    1.2261   -0.0247 H   0  0  0  0  0  0  0  0  0  0  0  0
   -2.1431    1.3826   -0.0089 C   0  0  0  0  0  0  0  0  0  0  0  0
   -2.1381    2.4657   -0.0278 H   0  0  0  0  0  0  0  0  0  0  0  0
    5.4133   -0.8735    0.0386 N   0  0  0  0  0  0  0  0  0  0  0  0
    6.6150   -1.4667    0.0407 C   0  0  0  0  0  0  0  0  0  0  0  0
    6.6098   -2.5497    0.0626 H   0  0  0  0  0  0  0  0  0  0  0  0
    7.8210   -0.7718    0.0167 C   0  0  0  0  0  0  0  0  0  0  0  0
    8.7574   -1.3113    0.0198 H   0  0  0  0  0  0  0  0  0  0  0  0
    7.7887    0.6185   -0.0110 C   0  0  0  0  0  0  0  0  0  0  0  0
    8.7040    1.1938   -0.0302 H   0  0  0  0  0  0  0  0  0  0  0  0
    6.5490    1.2488   -0.0135 C   0  0  0  0  0  0  0  0  0  0  0  0
    6.4692    2.3264   -0.0346 H   0  0  0  0  0  0  0  0  0  0  0  0
    5.3951    0.4688    0.0117 C   0  0  0  0  0  0  0  0  0  0  0  0
    4.4151    0.9325    0.0100 H   0  0  0  0  0  0  0  0  0  0  0  0
  1  2  1  0  0  0  0
  2  4  2  0  0  0  0
  2  3  1  0  0  0  0
  4  5  1  0  0  0  0
  6  7  1  0  0  0  0
  6  4  1  0  0  0  0
  8  6  2  0  0  0  0
  9  8  1  0  0  0  0
 10  8  1  0  0  0  0
 10  1  2  0  0  0  0
 11 10  1  0  0  0  0
 12 13  1  0  0  0  0
 13 14  1  0  0  0  0
 15 16  1  0  0  0  0
 15 13  2  0  0  0  0
 17 15  1  0  0  0  0
 18 17  1  0  0  0  0
 19 17  2  0  0  0  0
 19 21  1  0  0  0  0
 20 19  1  0  0  0  0
 21 12  2  0  0  0  0
 22 21  1  0  0  0  0
M  END
>  <SMILES>
n1ccccc1.n1ccccc1

>  <MoleculeName>
PyridinePyridineCHN200

>  <Distance Scale>
2.0

>  <Energy Value>
-0.28

$$$$
/home/S66X8/3136_55BenzeneMeOHOHpi125.xyz
 OpenBabel06262409173D

 18 17  0  0  0  0  0  0  0  0999 V2000
    0.7597    1.0313    0.3738 C   0  0  0  0  0  0  0  0  0  0  0  0
    1.4350    1.8757    0.3747 H   0  0  0  0  0  0  0  0  0  0  0  0
    1.2666   -0.2674    0.4213 C   0  0  0  0  0  0  0  0  0  0  0  0
    2.3349   -0.4292    0.4594 H   0  0  0  0  0  0  0  0  0  0  0  0
    0.3953   -1.3560    0.4249 C   0  0  0  0  0  0  0  0  0  0  0  0
    0.7887   -2.3625    0.4630 H   0  0  0  0  0  0  0  0  0  0  0  0
   -0.9822   -1.1467    0.3813 C   0  0  0  0  0  0  0  0  0  0  0  0
   -1.6577   -1.9911    0.3851 H   0  0  0  0  0  0  0  0  0  0  0  0
   -1.4893    0.1511    0.3376 C   0  0  0  0  0  0  0  0  0  0  0  0
   -2.5579    0.3138    0.3077 H   0  0  0  0  0  0  0  0  0  0  0  0
   -0.6188    1.2403    0.3339 C   0  0  0  0  0  0  0  0  0  0  0  0
   -1.0118    2.2471    0.3044 H   0  0  0  0  0  0  0  0  0  0  0  0
   -0.0075    0.2758    4.3458 O   0  0  0  0  0  0  0  0  0  0  0  0
    0.0786    0.3256    3.3886 H   0  0  0  0  0  0  0  0  0  0  0  0
   -0.9036   -0.7818    4.6289 C   0  0  0  0  0  0  0  0  0  0  0  0
   -0.9994   -0.8386    5.7098 H   0  0  0  0  0  0  0  0  0  0  0  0
   -1.8958   -0.6101    4.2051 H   0  0  0  0  0  0  0  0  0  0  0  0
   -0.5372   -1.7449    4.2660 H   0  0  0  0  0  0  0  0  0  0  0  0
  1  2  1  0  0  0  0
  1  3  1  0  0  0  0
  3  5  2  0  0  0  0
  3  4  1  0  0  0  0
  5  6  1  0  0  0  0
  7  8  1  0  0  0  0
  7  5  1  0  0  0  0
  9  7  2  0  0  0  0
 10  9  1  0  0  0  0
 11  9  1  0  0  0  0
 11  1  2  0  0  0  0
 12 11  1  0  0  0  0
 13 15  1  0  0  0  0
 14 13  1  0  0  0  0
 15 16  1  0  0  0  0
 17 15  1  0  0  0  0
 18 15  1  0  0  0  0
M  END
>  <SMILES>
c1ccccc1.OC

>  <MoleculeName>
BenzeneMeOHOHpi125

>  <Distance Scale>
1.25

>  <Energy Value>
-2.8

$$$$
/home/S66X8/2958_33PyridineEthene105.xyz
 OpenBabel06262409173D

 17 16  0  0  0  0  0  0  0  0999 V2000
    1.3814   -0.0002    0.1315 N   0  0  0  0  0  0  0  0  0  0  0  0
    0.6794   -1.1402    0.0921 C   0  0  0  0  0  0  0  0  0  0  0  0
    1.2587   -2.0550    0.1259 H   0  0  0  0  0  0  0  0  0  0  0  0
   -0.7097   -1.1931    0.0067 C   0  0  0  0  0  0  0  0  0  0  0  0
   -1.2141   -2.1486   -0.0253 H   0  0  0  0  0  0  0  0  0  0  0  0
   -1.4216    0.0001   -0.0408 C   0  0  0  0  0  0  0  0  0  0  0  0
   -2.5007    0.0003   -0.1092 H   0  0  0  0  0  0  0  0  0  0  0  0
   -0.7094    1.1932    0.0065 C   0  0  0  0  0  0  0  0  0  0  0  0
   -1.2135    2.1487   -0.0255 H   0  0  0  0  0  0  0  0  0  0  0  0
    0.6797    1.1400    0.0919 C   0  0  0  0  0  0  0  0  0  0  0  0
    1.2593    2.0545    0.1255 H   0  0  0  0  0  0  0  0  0  0  0  0
    0.0206    0.6664    3.5976 C   0  0  0  0  0  0  0  0  0  0  0  0
    0.9311    1.2259    3.4384 H   0  0  0  0  0  0  0  0  0  0  0  0
   -0.8890    1.2288    3.7545 H   0  0  0  0  0  0  0  0  0  0  0  0
    0.0209   -0.6662    3.5977 C   0  0  0  0  0  0  0  0  0  0  0  0
    0.9317   -1.2253    3.4387 H   0  0  0  0  0  0  0  0  0  0  0  0
   -0.8884   -1.2291    3.7548 H   0  0  0  0  0  0  0  0  0  0  0  0
  2  3  1  0  0  0  0
  2  1  1  0  0  0  0
  4  2  2  0  0  0  0
  5  4  1  0  0  0  0
  6  8  2  0  0  0  0
  6  4  1  0  0  0  0
  7  6  1  0  0  0  0
  8 10  1  0  0  0  0
  9  8  1  0  0  0  0
 10 11  1  0  0  0  0
 10  1  2  0  0  0  0
 12 15  2  0  0  0  0
 12 14  1  0  0  0  0
 13 12  1  0  0  0  0
 15 17  1  0  0  0  0
 16 15  1  0  0  0  0
M  END
>  <SMILES>
n1ccccc1.C=C

>  <MoleculeName>
PyridineEthene105

>  <Distance Scale>
1.05

>  <Energy Value>
-1.83

$$$$
/home/S66X8/3095_50BenzeneEthyneCHpi110.xyz
 OpenBabel06262409173D

 16 15  0  0  0  0  0  0  0  0999 V2000
    0.8366    1.1149    0.2310 C   0  0  0  0  0  0  0  0  0  0  0  0
    1.4855    1.9797    0.2147 H   0  0  0  0  0  0  0  0  0  0  0  0
    1.3842   -0.1670    0.2601 C   0  0  0  0  0  0  0  0  0  0  0  0
    2.4577   -0.2963    0.2661 H   0  0  0  0  0  0  0  0  0  0  0  0
    0.5475   -1.2818    0.2869 C   0  0  0  0  0  0  0  0  0  0  0  0
    0.9719   -2.2760    0.3139 H   0  0  0  0  0  0  0  0  0  0  0  0
   -0.8367   -1.1150    0.2846 C   0  0  0  0  0  0  0  0  0  0  0  0
   -1.4856   -1.9796    0.3097 H   0  0  0  0  0  0  0  0  0  0  0  0
   -1.3842    0.1669    0.2556 C   0  0  0  0  0  0  0  0  0  0  0  0
   -2.4576    0.2965    0.2585 H   0  0  0  0  0  0  0  0  0  0  0  0
   -0.5475    1.2817    0.2290 C   0  0  0  0  0  0  0  0  0  0  0  0
   -0.9721    2.2760    0.2112 H   0  0  0  0  0  0  0  0  0  0  0  0
    0.0062    0.0821    4.0754 C   0  0  0  0  0  0  0  0  0  0  0  0
    0.0032    0.0645    3.0113 H   0  0  0  0  0  0  0  0  0  0  0  0
    0.0099    0.1017    5.2878 C   0  0  0  0  0  0  0  0  0  0  0  0
    0.0130    0.1188    6.3489 H   0  0  0  0  0  0  0  0  0  0  0  0
  1  3  1  0  0  0  0
  2  1  1  0  0  0  0
  3  4  1  0  0  0  0
  3  5  2  0  0  0  0
  5  6  1  0  0  0  0
  7  5  1  0  0  0  0
  7  8  1  0  0  0  0
  9 10  1  0  0  0  0
  9  7  2  0  0  0  0
 11  1  2  0  0  0  0
 11  9  1  0  0  0  0
 12 11  1  0  0  0  0
 13 15  3  0  0  0  0
 14 13  1  0  0  0  0
 15 16  1  0  0  0  0
M  END
>  <SMILES>
c1ccccc1.C#C

>  <MoleculeName>
BenzeneEthyneCHpi110

>  <Distance Scale>
1.1

>  <Energy Value>
-2.58

$$$$
/home/S66X8/3193_62PentaneAcNH2150.xyz
 OpenBabel06262409173D

 26 24  0  0  0  0  0  0  0  0999 V2000
   -2.5878   -0.3231    0.4695 C   0  0  0  0  0  0  0  0  0  0  0  0
   -2.6104   -0.8764   -0.4696 H   0  0  0  0  0  0  0  0  0  0  0  0
   -2.6597   -1.0519    1.2777 H   0  0  0  0  0  0  0  0  0  0  0  0
   -3.4760    0.3056    0.5090 H   0  0  0  0  0  0  0  0  0  0  0  0
   -1.3096    0.4974    0.5851 C   0  0  0  0  0  0  0  0  0  0  0  0
   -1.3173    1.0833    1.5063 H   0  0  0  0  0  0  0  0  0  0  0  0
   -1.2624    1.2156   -0.2368 H   0  0  0  0  0  0  0  0  0  0  0  0
   -0.0568   -0.3683    0.5584 C   0  0  0  0  0  0  0  0  0  0  0  0
   -0.0862   -1.0734    1.3959 H   0  0  0  0  0  0  0  0  0  0  0  0
   -0.0538   -0.9768   -0.3515 H   0  0  0  0  0  0  0  0  0  0  0  0
    1.2316    0.4401    0.6320 C   0  0  0  0  0  0  0  0  0  0  0  0
    1.2133    1.0536    1.5346 H   0  0  0  0  0  0  0  0  0  0  0  0
    1.2663    1.1314   -0.2131 H   0  0  0  0  0  0  0  0  0  0  0  0
    2.4726   -0.4431    0.6192 C   0  0  0  0  0  0  0  0  0  0  0  0
    2.5207   -1.0353   -0.2949 H   0  0  0  0  0  0  0  0  0  0  0  0
    3.3877    0.1441    0.6839 H   0  0  0  0  0  0  0  0  0  0  0  0
    2.4593   -1.1394    1.4586 H   0  0  0  0  0  0  0  0  0  0  0  0
    0.0706    0.2620    5.4531 C   0  0  0  0  0  0  0  0  0  0  0  0
    0.0975    1.4471    5.1613 O   0  0  0  0  0  0  0  0  0  0  0  0
    1.2032   -0.4899    5.5559 N   0  0  0  0  0  0  0  0  0  0  0  0
    2.0741   -0.0673    5.2873 H   0  0  0  0  0  0  0  0  0  0  0  0
    1.1642   -1.4817    5.6873 H   0  0  0  0  0  0  0  0  0  0  0  0
   -1.2196   -0.4769    5.7176 C   0  0  0  0  0  0  0  0  0  0  0  0
   -1.0724   -1.4376    6.2047 H   0  0  0  0  0  0  0  0  0  0  0  0
   -1.7259   -0.6352    4.7667 H   0  0  0  0  0  0  0  0  0  0  0  0
   -1.8576    0.1503    6.3328 H   0  0  0  0  0  0  0  0  0  0  0  0
  1  4  1  0  0  0  0
  1  5  1  0  0  0  0
  1  3  1  0  0  0  0
  2  1  1  0  0  0  0
  5  6  1  0  0  0  0
  7  5  1  0  0  0  0
  8  5  1  0  0  0  0
  8 11  1  0  0  0  0
  8  9  1  0  0  0  0
 10  8  1  0  0  0  0
 11 12  1  0  0  0  0
 13 11  1  0  0  0  0
 14 11  1  0  0  0  0
 14 16  1  0  0  0  0
 14 17  1  0  0  0  0
 15 14  1  0  0  0  0
 18 20  1  0  0  0  0
 18 23  1  0  0  0  0
 19 18  2  0  0  0  0
 20 22  1  0  0  0  0
 21 20  1  0  0  0  0
 23 24  1  0  0  0  0
 23 26  1  0  0  0  0
 25 23  1  0  0  0  0
M  END
>  <SMILES>
CCCCC.C(=O)(N)C

>  <MoleculeName>
PentaneAcNH2150

>  <Distance Scale>
1.5

>  <Energy Value>
-1.04

$$$$
/home/S66X8/3120_53BenzeneAcNH2NHpi125.xyz
 OpenBabel06262409173D

 21 20  0  0  0  0  0  0  0  0999 V2000
    0.8556    0.3585    1.0498 C   0  0  0  0  0  0  0  0  0  0  0  0
    1.5138    0.9027    1.7128 H   0  0  0  0  0  0  0  0  0  0  0  0
    1.3429   -0.6754    0.2512 C   0  0  0  0  0  0  0  0  0  0  0  0
    2.3929   -0.9333    0.2820 H   0  0  0  0  0  0  0  0  0  0  0  0
    0.4778   -1.3767   -0.5878 C   0  0  0  0  0  0  0  0  0  0  0  0
    0.8561   -2.1789   -1.2068 H   0  0  0  0  0  0  0  0  0  0  0  0
   -0.8748   -1.0426   -0.6305 C   0  0  0  0  0  0  0  0  0  0  0  0
   -1.5454   -1.5857   -1.2824 H   0  0  0  0  0  0  0  0  0  0  0  0
   -1.3624   -0.0070    0.1658 C   0  0  0  0  0  0  0  0  0  0  0  0
   -2.4116    0.2535    0.1308 H   0  0  0  0  0  0  0  0  0  0  0  0
   -0.4984    0.6932    1.0070 C   0  0  0  0  0  0  0  0  0  0  0  0
   -0.8661    1.4903    1.6380 H   0  0  0  0  0  0  0  0  0  0  0  0
   -0.0230    0.1647    5.3971 C   0  0  0  0  0  0  0  0  0  0  0  0
    0.2234    1.2082    4.8098 O   0  0  0  0  0  0  0  0  0  0  0  0
   -0.3271   -0.9903    4.7459 N   0  0  0  0  0  0  0  0  0  0  0  0
   -0.3019   -0.9973    3.7392 H   0  0  0  0  0  0  0  0  0  0  0  0
   -0.4829   -1.8458    5.2416 H   0  0  0  0  0  0  0  0  0  0  0  0
   -0.0002    0.0698    6.9055 C   0  0  0  0  0  0  0  0  0  0  0  0
    1.0315    0.1540    7.2405 H   0  0  0  0  0  0  0  0  0  0  0  0
   -0.4221   -0.8568    7.2865 H   0  0  0  0  0  0  0  0  0  0  0  0
   -0.5497    0.9137    7.3122 H   0  0  0  0  0  0  0  0  0  0  0  0
  1  2  1  0  0  0  0
  3  4  1  0  0  0  0
  3  1  2  0  0  0  0
  5  3  1  0  0  0  0
  6  5  1  0  0  0  0
  7  5  2  0  0  0  0
  7  9  1  0  0  0  0
  8  7  1  0  0  0  0
  9 11  2  0  0  0  0
 10  9  1  0  0  0  0
 11  1  1  0  0  0  0
 11 12  1  0  0  0  0
 13 18  1  0  0  0  0
 14 13  2  0  0  0  0
 15 17  1  0  0  0  0
 15 13  1  0  0  0  0
 16 15  1  0  0  0  0
 18 19  1  0  0  0  0
 18 20  1  0  0  0  0
 18 21  1  0  0  0  0
M  END
>  <SMILES>
c1ccccc1.C(=O)(N)C

>  <MoleculeName>
BenzeneAcNH2NHpi125

>  <Distance Scale>
1.25

>  <Energy Value>
-2.97

$$$$
/home/S66X8/2956_33PyridineEthene095.xyz
 OpenBabel06262409173D

 17 16  0  0  0  0  0  0  0  0999 V2000
    1.3814   -0.0002    0.1315 N   0  0  0  0  0  0  0  0  0  0  0  0
    0.6794   -1.1402    0.0921 C   0  0  0  0  0  0  0  0  0  0  0  0
    1.2587   -2.0550    0.1259 H   0  0  0  0  0  0  0  0  0  0  0  0
   -0.7097   -1.1931    0.0067 C   0  0  0  0  0  0  0  0  0  0  0  0
   -1.2141   -2.1486   -0.0253 H   0  0  0  0  0  0  0  0  0  0  0  0
   -1.4216    0.0001   -0.0408 C   0  0  0  0  0  0  0  0  0  0  0  0
   -2.5007    0.0003   -0.1092 H   0  0  0  0  0  0  0  0  0  0  0  0
   -0.7094    1.1932    0.0065 C   0  0  0  0  0  0  0  0  0  0  0  0
   -1.2135    2.1487   -0.0255 H   0  0  0  0  0  0  0  0  0  0  0  0
    0.6797    1.1400    0.0919 C   0  0  0  0  0  0  0  0  0  0  0  0
    1.2593    2.0545    0.1255 H   0  0  0  0  0  0  0  0  0  0  0  0
    0.0177    0.6664    3.2770 C   0  0  0  0  0  0  0  0  0  0  0  0
    0.9282    1.2259    3.1179 H   0  0  0  0  0  0  0  0  0  0  0  0
   -0.8918    1.2288    3.4339 H   0  0  0  0  0  0  0  0  0  0  0  0
    0.0180   -0.6663    3.2771 C   0  0  0  0  0  0  0  0  0  0  0  0
    0.9288   -1.2253    3.1181 H   0  0  0  0  0  0  0  0  0  0  0  0
   -0.8912   -1.2291    3.4342 H   0  0  0  0  0  0  0  0  0  0  0  0
  2  3  1  0  0  0  0
  2  1  1  0  0  0  0
  4  2  2  0  0  0  0
  5  4  1  0  0  0  0
  6  8  2  0  0  0  0
  6  4  1  0  0  0  0
  7  6  1  0  0  0  0
  8 10  1  0  0  0  0
  9  8  1  0  0  0  0
 10 11  1  0  0  0  0
 10  1  2  0  0  0  0
 12 15  2  0  0  0  0
 12 14  1  0  0  0  0
 13 12  1  0  0  0  0
 15 17  1  0  0  0  0
 16 15  1  0  0  0  0
M  END
>  <SMILES>
n1ccccc1.C=C

>  <MoleculeName>
PyridineEthene095

>  <Distance Scale>
0.95

>  <Energy Value>
-1.62

$$$$
/home/S66X8/3023_41UracilPentane110.xyz
 OpenBabel06262409173D

 29 28  0  0  0  0  0  0  0  0999 V2000
   -0.2089   -0.9646    0.5348 N   0  0  0  0  0  0  0  0  0  0  0  0
   -0.2242   -1.9731    0.6051 H   0  0  0  0  0  0  0  0  0  0  0  0
   -1.4463   -0.3446    0.3067 C   0  0  0  0  0  0  0  0  0  0  0  0
   -2.4612   -1.0108    0.1979 O   0  0  0  0  0  0  0  0  0  0  0  0
   -1.3578    1.1032    0.2281 C   0  0  0  0  0  0  0  0  0  0  0  0
   -2.2566    1.6677    0.0498 H   0  0  0  0  0  0  0  0  0  0  0  0
   -0.1630    1.7099    0.3811 C   0  0  0  0  0  0  0  0  0  0  0  0
   -0.0463    2.7824    0.3333 H   0  0  0  0  0  0  0  0  0  0  0  0
    0.9855    1.0008    0.6112 N   0  0  0  0  0  0  0  0  0  0  0  0
    1.8676    1.4669    0.7448 H   0  0  0  0  0  0  0  0  0  0  0  0
    1.0270   -0.3792    0.7126 C   0  0  0  0  0  0  0  0  0  0  0  0
    2.0492   -0.9974    0.9373 O   0  0  0  0  0  0  0  0  0  0  0  0
    1.1710    2.3609    4.4090 C   0  0  0  0  0  0  0  0  0  0  0  0
    0.7401    2.6719    3.4562 H   0  0  0  0  0  0  0  0  0  0  0  0
    0.5368    2.7663    5.1973 H   0  0  0  0  0  0  0  0  0  0  0  0
    2.1539    2.8213    4.5021 H   0  0  0  0  0  0  0  0  0  0  0  0
    1.2440    0.8420    4.4985 C   0  0  0  0  0  0  0  0  0  0  0  0
    1.6744    0.5524    5.4598 H   0  0  0  0  0  0  0  0  0  0  0  0
    1.9186    0.4508    3.7334 H   0  0  0  0  0  0  0  0  0  0  0  0
   -0.1208    0.1838    4.3437 C   0  0  0  0  0  0  0  0  0  0  0  0
   -0.7920    0.5527    5.1253 H   0  0  0  0  0  0  0  0  0  0  0  0
   -0.5682    0.4941    3.3938 H   0  0  0  0  0  0  0  0  0  0  0  0
   -0.0645   -1.3369    4.4033 C   0  0  0  0  0  0  0  0  0  0  0  0
    0.3591   -1.6393    5.3640 H   0  0  0  0  0  0  0  0  0  0  0  0
    0.6270   -1.6987    3.6388 H   0  0  0  0  0  0  0  0  0  0  0  0
   -1.4338   -1.9787    4.2196 C   0  0  0  0  0  0  0  0  0  0  0  0
   -1.8721   -1.7053    3.2594 H   0  0  0  0  0  0  0  0  0  0  0  0
   -1.3768   -3.0655    4.2636 H   0  0  0  0  0  0  0  0  0  0  0  0
   -2.1217   -1.6504    4.9988 H   0  0  0  0  0  0  0  0  0  0  0  0
  1  2  1  0  0  0  0
  1 11  1  0  0  0  0
  3  1  1  0  0  0  0
  4  3  2  0  0  0  0
  5  3  1  0  0  0  0
  5  7  2  0  0  0  0
  6  5  1  0  0  0  0
  7  9  1  0  0  0  0
  8  7  1  0  0  0  0
  9 11  1  0  0  0  0
  9 10  1  0  0  0  0
 11 12  2  0  0  0  0
 13 17  1  0  0  0  0
 13 16  1  0  0  0  0
 13 15  1  0  0  0  0
 14 13  1  0  0  0  0
 17 18  1  0  0  0  0
 19 17  1  0  0  0  0
 20 23  1  0  0  0  0
 20 17  1  0  0  0  0
 20 21  1  0  0  0  0
 22 20  1  0  0  0  0
 23 24  1  0  0  0  0
 25 23  1  0  0  0  0
 26 28  1  0  0  0  0
 26 23  1  0  0  0  0
 26 29  1  0  0  0  0
 27 26  1  0  0  0  0
M  END
>  <SMILES>
[nH]1c(=O)cc[nH]c1=O.CCCCC

>  <MoleculeName>
UracilPentane110

>  <Distance Scale>
1.1

>  <Energy Value>
-4.08

$$$$
/home/S66X8/3065_46PeptidePentane150.xyz
 OpenBabel06262409173D

 29 27  0  0  0  0  0  0  0  0999 V2000
    1.3722    1.0125    0.9708 C   0  0  0  0  0  0  0  0  0  0  0  0
    0.9522    2.0140    1.0331 H   0  0  0  0  0  0  0  0  0  0  0  0
    1.9474    0.9265    0.0507 H   0  0  0  0  0  0  0  0  0  0  0  0
    2.0517    0.8518    1.8030 H   0  0  0  0  0  0  0  0  0  0  0  0
    0.3267   -0.0776    0.9882 C   0  0  0  0  0  0  0  0  0  0  0  0
    0.6188   -1.2525    1.1713 O   0  0  0  0  0  0  0  0  0  0  0  0
   -0.9500    0.3449    0.7739 N   0  0  0  0  0  0  0  0  0  0  0  0
   -1.1047    1.3220    0.6061 H   0  0  0  0  0  0  0  0  0  0  0  0
   -2.0599   -0.5774    0.6802 C   0  0  0  0  0  0  0  0  0  0  0  0
   -1.6694   -1.5668    0.8972 H   0  0  0  0  0  0  0  0  0  0  0  0
   -2.8346   -0.3314    1.4037 H   0  0  0  0  0  0  0  0  0  0  0  0
   -2.4910   -0.5789   -0.3199 H   0  0  0  0  0  0  0  0  0  0  0  0
    2.7787    0.5454    6.2366 C   0  0  0  0  0  0  0  0  0  0  0  0
    2.8956    1.2998    5.4578 H   0  0  0  0  0  0  0  0  0  0  0  0
    2.6926    1.0703    7.1882 H   0  0  0  0  0  0  0  0  0  0  0  0
    3.6908   -0.0488    6.2634 H   0  0  0  0  0  0  0  0  0  0  0  0
    1.5505   -0.3180    5.9790 C   0  0  0  0  0  0  0  0  0  0  0  0
    1.4559   -1.0634    6.7721 H   0  0  0  0  0  0  0  0  0  0  0  0
    1.6669   -0.8715    5.0452 H   0  0  0  0  0  0  0  0  0  0  0  0
    0.2679    0.5006    5.9137 C   0  0  0  0  0  0  0  0  0  0  0  0
    0.1564    1.0784    6.8368 H   0  0  0  0  0  0  0  0  0  0  0  0
    0.3472    1.2334    5.1041 H   0  0  0  0  0  0  0  0  0  0  0  0
   -0.9764   -0.3497    5.6969 C   0  0  0  0  0  0  0  0  0  0  0  0
   -1.0672   -1.0642    6.5183 H   0  0  0  0  0  0  0  0  0  0  0  0
   -0.8486   -0.9387    4.7866 H   0  0  0  0  0  0  0  0  0  0  0  0
   -2.2433    0.4906    5.6067 C   0  0  0  0  0  0  0  0  0  0  0  0
   -2.1763    1.1976    4.7790 H   0  0  0  0  0  0  0  0  0  0  0  0
   -3.1286   -0.1254    5.4529 H   0  0  0  0  0  0  0  0  0  0  0  0
   -2.3936    1.0668    6.5200 H   0  0  0  0  0  0  0  0  0  0  0  0
  1  5  1  0  0  0  0
  1  2  1  0  0  0  0
  1  4  1  0  0  0  0
  3  1  1  0  0  0  0
  5  6  2  0  0  0  0
  7  5  1  0  0  0  0
  8  7  1  0  0  0  0
  9  7  1  0  0  0  0
  9 10  1  0  0  0  0
  9 11  1  0  0  0  0
 12  9  1  0  0  0  0
 13 16  1  0  0  0  0
 13 15  1  0  0  0  0
 14 13  1  0  0  0  0
 17 13  1  0  0  0  0
 17 18  1  0  0  0  0
 19 17  1  0  0  0  0
 20 17  1  0  0  0  0
 20 21  1  0  0  0  0
 22 20  1  0  0  0  0
 23 20  1  0  0  0  0
 23 24  1  0  0  0  0
 25 23  1  0  0  0  0
 26 23  1  0  0  0  0
 26 29  1  0  0  0  0
 27 26  1  0  0  0  0
 28 26  1  0  0  0  0
M  END
>  <SMILES>
CC(=O)NC.CCCCC

>  <MoleculeName>
PeptidePentane150

>  <Distance Scale>
1.5

>  <Energy Value>
-1.19

$$$$
/home/S66X8/2724_04WaterPeptide095.xyz
 OpenBabel06262409173D

 15 13  0  0  0  0  0  0  0  0999 V2000
   -0.3920   -0.3847    0.0761 O   0  0  0  0  0  0  0  0  0  0  0  0
   -0.9115    0.4138    0.1776 H   0  0  0  0  0  0  0  0  0  0  0  0
    0.5249   -0.0685    0.0905 H   0  0  0  0  0  0  0  0  0  0  0  0
    2.1462   -2.2509   -0.2294 C   0  0  0  0  0  0  0  0  0  0  0  0
    2.7962   -3.1120   -0.3623 H   0  0  0  0  0  0  0  0  0  0  0  0
    1.4652   -2.1734   -1.0733 H   0  0  0  0  0  0  0  0  0  0  0  0
    1.5332   -2.3897    0.6576 H   0  0  0  0  0  0  0  0  0  0  0  0
    2.9009   -0.9529   -0.0968 C   0  0  0  0  0  0  0  0  0  0  0  0
    2.3242    0.1224    0.0597 O   0  0  0  0  0  0  0  0  0  0  0  0
    4.2516   -1.0504   -0.1615 N   0  0  0  0  0  0  0  0  0  0  0  0
    4.6525   -1.9609   -0.2910 H   0  0  0  0  0  0  0  0  0  0  0  0
    5.1198    0.1016   -0.0520 C   0  0  0  0  0  0  0  0  0  0  0  0
    4.4833    0.9699    0.0828 H   0  0  0  0  0  0  0  0  0  0  0  0
    5.7854    0.0102    0.8041 H   0  0  0  0  0  0  0  0  0  0  0  0
    5.7143    0.2310   -0.9543 H   0  0  0  0  0  0  0  0  0  0  0  0
  1  3  1  0  0  0  0
  1  2  1  0  0  0  0
  4  8  1  0  0  0  0
  4  7  1  0  0  0  0
  5  4  1  0  0  0  0
  6  4  1  0  0  0  0
  8  9  2  0  0  0  0
 10  8  1  0  0  0  0
 10 12  1  0  0  0  0
 11 10  1  0  0  0  0
 12 13  1  0  0  0  0
 12 14  1  0  0  0  0
 15 12  1  0  0  0  0
M  END
>  <SMILES>
O.CC(=O)NC

>  <MoleculeName>
WaterPeptide095

>  <Distance Scale>
0.95

>  <Energy Value>
-8.06

$$$$
/home/S66X8/3211_65PyridineEthyne090.xyz
 OpenBabel06262409173D

 15 14  0  0  0  0  0  0  0  0999 V2000
   -0.0830    0.0007    1.0552 N   0  0  0  0  0  0  0  0  0  0  0  0
   -0.2029   -1.1417    0.3649 C   0  0  0  0  0  0  0  0  0  0  0  0
   -0.0985   -2.0551    0.9374 H   0  0  0  0  0  0  0  0  0  0  0  0
   -0.4468   -1.1918   -1.0045 C   0  0  0  0  0  0  0  0  0  0  0  0
   -0.5336   -2.1459   -1.5042 H   0  0  0  0  0  0  0  0  0  0  0  0
   -0.5747    0.0034   -1.7043 C   0  0  0  0  0  0  0  0  0  0  0  0
   -0.7637    0.0045   -2.7687 H   0  0  0  0  0  0  0  0  0  0  0  0
   -0.4535    1.1972   -1.0009 C   0  0  0  0  0  0  0  0  0  0  0  0
   -0.5456    2.1523   -1.4978 H   0  0  0  0  0  0  0  0  0  0  0  0
   -0.2093    1.1445    0.3684 C   0  0  0  0  0  0  0  0  0  0  0  0
   -0.1102    2.0567    0.9436 H   0  0  0  0  0  0  0  0  0  0  0  0
    0.4434   -0.0054    5.3348 C   0  0  0  0  0  0  0  0  0  0  0  0
    0.5588   -0.0048    6.3898 H   0  0  0  0  0  0  0  0  0  0  0  0
    0.3113   -0.0059    4.1286 C   0  0  0  0  0  0  0  0  0  0  0  0
    0.1932   -0.0057    3.0641 H   0  0  0  0  0  0  0  0  0  0  0  0
  2  3  1  0  0  0  0
  2  1  2  0  0  0  0
  4  2  1  0  0  0  0
  5  4  1  0  0  0  0
  6  4  2  0  0  0  0
  6  8  1  0  0  0  0
  7  6  1  0  0  0  0
  8 10  2  0  0  0  0
  9  8  1  0  0  0  0
 10 11  1  0  0  0  0
 10  1  1  0  0  0  0
 12 13  1  0  0  0  0
 14 12  3  0  0  0  0
 15 14  1  0  0  0  0
M  END
>  <SMILES>
n1ccccc1.C#C

>  <MoleculeName>
PyridineEthyne090

>  <Distance Scale>
0.9

>  <Energy Value>
-3.54

$$$$
/home/S66X8/3040_43UracilNeopentane125.xyz
 OpenBabel06262409173D

 29 28  0  0  0  0  0  0  0  0999 V2000
    0.6261   -0.8509    0.8059 N   0  0  0  0  0  0  0  0  0  0  0  0
    0.4092   -1.8115    1.0344 H   0  0  0  0  0  0  0  0  0  0  0  0
   -0.4325   -0.0873    0.2947 C   0  0  0  0  0  0  0  0  0  0  0  0
   -1.5308   -0.5884    0.1236 O   0  0  0  0  0  0  0  0  0  0  0  0
   -0.0669    1.2913    0.0196 C   0  0  0  0  0  0  0  0  0  0  0  0
   -0.8097    1.9518   -0.3928 H   0  0  0  0  0  0  0  0  0  0  0  0
    1.1835    1.7179    0.2905 C   0  0  0  0  0  0  0  0  0  0  0  0
    1.5019    2.7339    0.1098 H   0  0  0  0  0  0  0  0  0  0  0  0
    2.1341    0.8866    0.8191 N   0  0  0  0  0  0  0  0  0  0  0  0
    3.0553    1.2239    1.0434 H   0  0  0  0  0  0  0  0  0  0  0  0
    1.9028   -0.4432    1.1283 C   0  0  0  0  0  0  0  0  0  0  0  0
    2.7438   -1.1639    1.6286 O   0  0  0  0  0  0  0  0  0  0  0  0
   -0.8929   -0.0457    5.4858 C   0  0  0  0  0  0  0  0  0  0  0  0
   -2.2097    0.6956    5.7007 C   0  0  0  0  0  0  0  0  0  0  0  0
   -2.9167    0.0774    6.2555 H   0  0  0  0  0  0  0  0  0  0  0  0
   -2.0502    1.6158    6.2649 H   0  0  0  0  0  0  0  0  0  0  0  0
   -2.6674    0.9571    4.7455 H   0  0  0  0  0  0  0  0  0  0  0  0
   -0.2775   -0.3991    6.8371 C   0  0  0  0  0  0  0  0  0  0  0  0
    0.6657   -0.9315    6.7063 H   0  0  0  0  0  0  0  0  0  0  0  0
   -0.0805    0.5006    7.4219 H   0  0  0  0  0  0  0  0  0  0  0  0
   -0.9488   -1.0368    7.4138 H   0  0  0  0  0  0  0  0  0  0  0  0
    0.0722    0.8478    4.7100 C   0  0  0  0  0  0  0  0  0  0  0  0
    1.0208    0.3352    4.5397 H   0  0  0  0  0  0  0  0  0  0  0  0
    0.2775    1.7659    5.2634 H   0  0  0  0  0  0  0  0  0  0  0  0
   -0.3502    1.1263    3.7426 H   0  0  0  0  0  0  0  0  0  0  0  0
   -1.1542   -1.3257    4.6954 C   0  0  0  0  0  0  0  0  0  0  0  0
   -1.6180   -1.1039    3.7328 H   0  0  0  0  0  0  0  0  0  0  0  0
   -0.2217   -1.8641    4.5158 H   0  0  0  0  0  0  0  0  0  0  0  0
   -1.8248   -1.9875    5.2456 H   0  0  0  0  0  0  0  0  0  0  0  0
  1  2  1  0  0  0  0
  1 11  1  0  0  0  0
  3  1  1  0  0  0  0
  4  3  2  0  0  0  0
  5  7  2  0  0  0  0
  5  3  1  0  0  0  0
  6  5  1  0  0  0  0
  7  9  1  0  0  0  0
  8  7  1  0  0  0  0
  9 10  1  0  0  0  0
  9 11  1  0  0  0  0
 11 12  2  0  0  0  0
 13 14  1  0  0  0  0
 13 18  1  0  0  0  0
 14 15  1  0  0  0  0
 14 16  1  0  0  0  0
 17 14  1  0  0  0  0
 18 21  1  0  0  0  0
 18 20  1  0  0  0  0
 19 18  1  0  0  0  0
 22 24  1  0  0  0  0
 22 13  1  0  0  0  0
 23 22  1  0  0  0  0
 25 22  1  0  0  0  0
 26 29  1  0  0  0  0
 26 13  1  0  0  0  0
 27 26  1  0  0  0  0
 28 26  1  0  0  0  0
M  END
>  <SMILES>
[nH]1c(=O)cc[nH]c1=O.C(C)(C)(C)C

>  <MoleculeName>
UracilNeopentane125

>  <Distance Scale>
1.25

>  <Energy Value>
-2.05

$$$$
/home/S66X8/2854_20AcOHAcOH105.xyz
 OpenBabel06262409173D

 16 14  0  0  0  0  0  0  0  0999 V2000
   -1.0617    1.2971    0.2921 C   0  0  0  0  0  0  0  0  0  0  0  0
   -0.3582    2.2705    0.5318 O   0  0  0  0  0  0  0  0  0  0  0  0
   -0.5893    0.0949    0.0038 O   0  0  0  0  0  0  0  0  0  0  0  0
    0.4044    0.1277    0.0184 H   0  0  0  0  0  0  0  0  0  0  0  0
   -2.5584    1.3425    0.2963 C   0  0  0  0  0  0  0  0  0  0  0  0
   -2.8960    2.3475    0.5183 H   0  0  0  0  0  0  0  0  0  0  0  0
   -2.9329    1.0224   -0.6730 H   0  0  0  0  0  0  0  0  0  0  0  0
   -2.9372    0.6449    1.0396 H   0  0  0  0  0  0  0  0  0  0  0  0
    2.8842    1.1088    0.2719 C   0  0  0  0  0  0  0  0  0  0  0  0
    2.1806    0.1355    0.0321 O   0  0  0  0  0  0  0  0  0  0  0  0
    2.4118    2.3113    0.5597 O   0  0  0  0  0  0  0  0  0  0  0  0
    1.4180    2.2784    0.5453 H   0  0  0  0  0  0  0  0  0  0  0  0
    4.3810    1.0629    0.2699 C   0  0  0  0  0  0  0  0  0  0  0  0
    4.7185    0.0616    0.0324 H   0  0  0  0  0  0  0  0  0  0  0  0
    4.7625    1.7733   -0.4595 H   0  0  0  0  0  0  0  0  0  0  0  0
    4.7525    1.3656    1.2460 H   0  0  0  0  0  0  0  0  0  0  0  0
  1  5  1  0  0  0  0
  1  2  2  0  0  0  0
  3  4  1  0  0  0  0
  3  1  1  0  0  0  0
  5  6  1  0  0  0  0
  5  8  1  0  0  0  0
  7  5  1  0  0  0  0
  9 11  1  0  0  0  0
 10  9  2  0  0  0  0
 12 11  1  0  0  0  0
 13  9  1  0  0  0  0
 13 16  1  0  0  0  0
 14 13  1  0  0  0  0
 15 13  1  0  0  0  0
M  END
>  <SMILES>
C(=O)(O)C.C(=O)(O)C

>  <MoleculeName>
AcOHAcOH105

>  <Distance Scale>
1.05

>  <Energy Value>
-18.72

$$$$
/home/S66X8/2872_22AcOHUracil125.xyz
 OpenBabel06262409173D

 20 19  0  0  0  0  0  0  0  0999 V2000
   -1.1136    1.3270    0.2752 C   0  0  0  0  0  0  0  0  0  0  0  0
   -0.4671    2.3494    0.4615 O   0  0  0  0  0  0  0  0  0  0  0  0
   -0.5781    0.1369    0.0496 O   0  0  0  0  0  0  0  0  0  0  0  0
    0.4133    0.2033    0.0555 H   0  0  0  0  0  0  0  0  0  0  0  0
   -2.6114    1.2862    0.2774 C   0  0  0  0  0  0  0  0  0  0  0  0
   -3.0066    2.2769    0.4658 H   0  0  0  0  0  0  0  0  0  0  0  0
   -2.9643    0.9153   -0.6820 H   0  0  0  0  0  0  0  0  0  0  0  0
   -2.9531    0.5918    1.0412 H   0  0  0  0  0  0  0  0  0  0  0  0
    4.6233    1.0989    0.1812 N   0  0  0  0  0  0  0  0  0  0  0  0
    5.0165    0.1835    0.0095 H   0  0  0  0  0  0  0  0  0  0  0  0
    5.5448    2.1470    0.3627 C   0  0  0  0  0  0  0  0  0  0  0  0
    6.7419    1.9287    0.3098 O   0  0  0  0  0  0  0  0  0  0  0  0
    4.9057    3.4265    0.6033 C   0  0  0  0  0  0  0  0  0  0  0  0
    5.5253    4.2934    0.7548 H   0  0  0  0  0  0  0  0  0  0  0  0
    3.5586    3.5065    0.6327 C   0  0  0  0  0  0  0  0  0  0  0  0
    3.0358    4.4349    0.8080 H   0  0  0  0  0  0  0  0  0  0  0  0
    2.7549    2.4158    0.4423 N   0  0  0  0  0  0  0  0  0  0  0  0
    1.7309    2.4858    0.4661 H   0  0  0  0  0  0  0  0  0  0  0  0
    3.2548    1.1656    0.2081 C   0  0  0  0  0  0  0  0  0  0  0  0
    2.5428    0.1761    0.0346 O   0  0  0  0  0  0  0  0  0  0  0  0
  1  5  1  0  0  0  0
  1  2  2  0  0  0  0
  3  4  1  0  0  0  0
  3  1  1  0  0  0  0
  5  6  1  0  0  0  0
  5  8  1  0  0  0  0
  7  5  1  0  0  0  0
  9 19  1  0  0  0  0
  9 11  1  0  0  0  0
 10  9  1  0  0  0  0
 11 13  1  0  0  0  0
 12 11  2  0  0  0  0
 13 15  2  0  0  0  0
 13 14  1  0  0  0  0
 15 16  1  0  0  0  0
 17 18  1  0  0  0  0
 17 15  1  0  0  0  0
 19 17  1  0  0  0  0
 20 19  2  0  0  0  0
M  END
>  <SMILES>
C(=O)(O)C.[nH]1c(=O)cc[nH]c1=O

>  <MoleculeName>
AcOHUracil125

>  <Distance Scale>
1.25

>  <Energy Value>
-15.14

$$$$
/home/S66X8/2768_09MeNH2MeOH125.xyz
 OpenBabel06262409173D

 13 11  0  0  0  0  0  0  0  0999 V2000
   -0.8935   -0.0438   -0.0430 N   0  0  0  0  0  0  0  0  0  0  0  0
    0.0969   -0.2561   -0.0711 H   0  0  0  0  0  0  0  0  0  0  0  0
   -1.3684   -0.9334    0.0338 H   0  0  0  0  0  0  0  0  0  0  0  0
   -1.1758    0.7579    1.1452 C   0  0  0  0  0  0  0  0  0  0  0  0
   -2.2416    0.9722    1.1950 H   0  0  0  0  0  0  0  0  0  0  0  0
   -0.8808    0.3042    2.0972 H   0  0  0  0  0  0  0  0  0  0  0  0
   -0.6630    1.7143    1.0608 H   0  0  0  0  0  0  0  0  0  0  0  0
    2.9096    0.0121    0.0561 O   0  0  0  0  0  0  0  0  0  0  0  0
    3.1917    0.3821   -0.7838 H   0  0  0  0  0  0  0  0  0  0  0  0
    3.2956    0.9237    1.0755 C   0  0  0  0  0  0  0  0  0  0  0  0
    2.9724    0.4941    2.0186 H   0  0  0  0  0  0  0  0  0  0  0  0
    4.3766    1.0628    1.1146 H   0  0  0  0  0  0  0  0  0  0  0  0
    2.8171    1.8973    0.9603 H   0  0  0  0  0  0  0  0  0  0  0  0
  1  3  1  0  0  0  0
  1  4  1  0  0  0  0
  2  1  1  0  0  0  0
  4  5  1  0  0  0  0
  4  6  1  0  0  0  0
  7  4  1  0  0  0  0
  8 10  1  0  0  0  0
  9  8  1  0  0  0  0
 10 12  1  0  0  0  0
 10 11  1  0  0  0  0
 13 10  1  0  0  0  0
M  END
>  <SMILES>
NC.OC

>  <MoleculeName>
MeNH2MeOH125

>  <Distance Scale>
1.25

>  <Energy Value>
-1.98

$$$$
/home/S66X8/2989_37CyclopentaneNeopentane100.xyz
 OpenBabel06262409173D

 32 31  0  0  0  0  0  0  0  0999 V2000
    0.7999   -1.0221    0.6877 C   0  0  0  0  0  0  0  0  0  0  0  0
    0.8536   -1.1221   -0.3980 H   0  0  0  0  0  0  0  0  0  0  0  0
    1.4914   -1.7442    1.1197 H   0  0  0  0  0  0  0  0  0  0  0  0
    1.1169    0.4250    1.0997 C   0  0  0  0  0  0  0  0  0  0  0  0
    1.8381    0.8901    0.4305 H   0  0  0  0  0  0  0  0  0  0  0  0
    1.5556    0.4398    2.0971 H   0  0  0  0  0  0  0  0  0  0  0  0
   -0.2446    1.1657    1.1030 C   0  0  0  0  0  0  0  0  0  0  0  0
   -0.2581    2.0009    0.4053 H   0  0  0  0  0  0  0  0  0  0  0  0
   -0.4488    1.5770    2.0910 H   0  0  0  0  0  0  0  0  0  0  0  0
   -1.2987    0.1038    0.7393 C   0  0  0  0  0  0  0  0  0  0  0  0
   -1.4736    0.1052   -0.3380 H   0  0  0  0  0  0  0  0  0  0  0  0
   -2.2567    0.2780    1.2272 H   0  0  0  0  0  0  0  0  0  0  0  0
   -0.6469   -1.2201    1.1363 C   0  0  0  0  0  0  0  0  0  0  0  0
   -1.1244   -2.0876    0.6830 H   0  0  0  0  0  0  0  0  0  0  0  0
   -0.6860   -1.3453    2.2202 H   0  0  0  0  0  0  0  0  0  0  0  0
    0.0498    0.0940    5.6120 C   0  0  0  0  0  0  0  0  0  0  0  0
   -0.0466   -0.0581    7.1276 C   0  0  0  0  0  0  0  0  0  0  0  0
    0.9460   -0.0735    7.5800 H   0  0  0  0  0  0  0  0  0  0  0  0
   -0.6055    0.7698    7.5661 H   0  0  0  0  0  0  0  0  0  0  0  0
   -0.5538   -0.9867    7.3930 H   0  0  0  0  0  0  0  0  0  0  0  0
    0.7638    1.4009    5.2764 C   0  0  0  0  0  0  0  0  0  0  0  0
    0.8453    1.5344    4.1967 H   0  0  0  0  0  0  0  0  0  0  0  0
    0.2203    2.2556    5.6819 H   0  0  0  0  0  0  0  0  0  0  0  0
    1.7714    1.4116    5.6946 H   0  0  0  0  0  0  0  0  0  0  0  0
   -1.3553    0.1138    5.0147 C   0  0  0  0  0  0  0  0  0  0  0  0
   -1.3183    0.2310    3.9308 H   0  0  0  0  0  0  0  0  0  0  0  0
   -1.9376    0.9413    5.4230 H   0  0  0  0  0  0  0  0  0  0  0  0
   -1.8852   -0.8139    5.2360 H   0  0  0  0  0  0  0  0  0  0  0  0
    0.8377   -1.0795    5.0347 C   0  0  0  0  0  0  0  0  0  0  0  0
    0.3424   -2.0265    5.2549 H   0  0  0  0  0  0  0  0  0  0  0  0
    0.9325   -0.9923    3.9515 H   0  0  0  0  0  0  0  0  0  0  0  0
    1.8424   -1.1169    5.4584 H   0  0  0  0  0  0  0  0  0  0  0  0
  1  4  1  0  0  0  0
  1  3  1  0  0  0  0
  1 13  1  0  0  0  0
  2  1  1  0  0  0  0
  4  7  1  0  0  0  0
  4  6  1  0  0  0  0
  5  4  1  0  0  0  0
  7  9  1  0  0  0  0
  8  7  1  0  0  0  0
 10  7  1  0  0  0  0
 10 13  1  0  0  0  0
 10 12  1  0  0  0  0
 11 10  1  0  0  0  0
 13 15  1  0  0  0  0
 14 13  1  0  0  0  0
 16 17  1  0  0  0  0
 17 20  1  0  0  0  0
 17 19  1  0  0  0  0
 17 18  1  0  0  0  0
 21 16  1  0  0  0  0
 21 23  1  0  0  0  0
 21 24  1  0  0  0  0
 22 21  1  0  0  0  0
 25 28  1  0  0  0  0
 25 27  1  0  0  0  0
 25 16  1  0  0  0  0
 26 25  1  0  0  0  0
 29 30  1  0  0  0  0
 29 32  1  0  0  0  0
 29 16  1  0  0  0  0
 31 29  1  0  0  0  0
M  END
>  <SMILES>
C1CCCC1.C(C)(C)(C)C

>  <MoleculeName>
CyclopentaneNeopentane100

>  <Distance Scale>
1.0

>  <Energy Value>
-2.41

$$$$
/home/S66X8/2903_26UracilUracilpipi110.xyz
 OpenBabel06262409173D

 24 24  0  0  0  0  0  0  0  0999 V2000
    1.3769    0.8397    0.7346 N   0  0  0  0  0  0  0  0  0  0  0  0
    1.0518    1.3862    1.5234 H   0  0  0  0  0  0  0  0  0  0  0  0
    1.3090    1.4575   -0.5207 C   0  0  0  0  0  0  0  0  0  0  0  0
    0.9206    2.6111   -0.6260 O   0  0  0  0  0  0  0  0  0  0  0  0
    2.0114   -1.2132   -0.0981 N   0  0  0  0  0  0  0  0  0  0  0  0
    1.7273    0.9908   -2.6120 H   0  0  0  0  0  0  0  0  0  0  0  0
    2.0257   -0.6972   -1.3644 C   0  0  0  0  0  0  0  0  0  0  0  0
    2.2975   -1.3911   -2.1456 H   0  0  0  0  0  0  0  0  0  0  0  0
    1.7145    0.5919   -1.6125 C   0  0  0  0  0  0  0  0  0  0  0  0
    2.1295   -2.2015    0.0568 H   0  0  0  0  0  0  0  0  0  0  0  0
    1.6459   -0.4852    1.0187 C   0  0  0  0  0  0  0  0  0  0  0  0
    1.5611   -0.9718    2.1298 O   0  0  0  0  0  0  0  0  0  0  0  0
   -1.6508   -0.8870    0.7346 N   0  0  0  0  0  0  0  0  0  0  0  0
   -1.3257   -1.4335    1.5234 H   0  0  0  0  0  0  0  0  0  0  0  0
   -1.5829   -1.5048   -0.5207 C   0  0  0  0  0  0  0  0  0  0  0  0
   -1.1944   -2.6584   -0.6260 O   0  0  0  0  0  0  0  0  0  0  0  0
   -2.2853    1.1659   -0.0981 N   0  0  0  0  0  0  0  0  0  0  0  0
   -2.0012   -1.0381   -2.6120 H   0  0  0  0  0  0  0  0  0  0  0  0
   -2.2996    0.6499   -1.3644 C   0  0  0  0  0  0  0  0  0  0  0  0
   -2.5714    1.3438   -2.1456 H   0  0  0  0  0  0  0  0  0  0  0  0
   -1.9884   -0.6392   -1.6125 C   0  0  0  0  0  0  0  0  0  0  0  0
   -2.4033    2.1542    0.0568 H   0  0  0  0  0  0  0  0  0  0  0  0
   -1.9198    0.4379    1.0187 C   0  0  0  0  0  0  0  0  0  0  0  0
   -1.8350    0.9245    2.1298 O   0  0  0  0  0  0  0  0  0  0  0  0
  1 11  1  0  0  0  0
  1  2  1  0  0  0  0
  3  1  1  0  0  0  0
  4  3  2  0  0  0  0
  5 10  1  0  0  0  0
  5 11  1  0  0  0  0
  6  9  1  0  0  0  0
  7  5  1  0  0  0  0
  8  7  1  0  0  0  0
  9  7  2  0  0  0  0
  9  3  1  0  0  0  0
 11 12  2  0  0  0  0
 13 23  1  0  0  0  0
 13 14  1  0  0  0  0
 15 13  1  0  0  0  0
 16 15  2  0  0  0  0
 17 22  1  0  0  0  0
 17 23  1  0  0  0  0
 18 21  1  0  0  0  0
 19 17  1  0  0  0  0
 20 19  1  0  0  0  0
 21 19  2  0  0  0  0
 21 15  1  0  0  0  0
 23 24  2  0  0  0  0
M  END
>  <SMILES>
[nH]1c(=O)cc[nH]c1=O.[nH]1c(=O)cc[nH]c1=O

>  <MoleculeName>
UracilUracilpipi110

>  <Distance Scale>
1.1

>  <Energy Value>
-8.69

$$$$
/home/S66X8/2887_24BenzeneBenzenepipi110.xyz
 OpenBabel06262409173D

 24 24  0  0  0  0  0  0  0  0999 V2000
    0.7126    1.1210    0.0605 C   0  0  0  0  0  0  0  0  0  0  0  0
    1.3578    1.9864    0.1277 H   0  0  0  0  0  0  0  0  0  0  0  0
    1.2582   -0.1593    0.1242 C   0  0  0  0  0  0  0  0  0  0  0  0
    2.3250   -0.2871    0.2467 H   0  0  0  0  0  0  0  0  0  0  0  0
    0.4269   -1.2745    0.0427 C   0  0  0  0  0  0  0  0  0  0  0  0
    0.8504   -2.2684    0.0947 H   0  0  0  0  0  0  0  0  0  0  0  0
   -0.9496   -1.1101   -0.1003 C   0  0  0  0  0  0  0  0  0  0  0  0
   -1.5945   -1.9763   -0.1637 H   0  0  0  0  0  0  0  0  0  0  0  0
   -1.4955    0.1711   -0.1615 C   0  0  0  0  0  0  0  0  0  0  0  0
   -2.5638    0.2992   -0.2737 H   0  0  0  0  0  0  0  0  0  0  0  0
   -0.6638    1.2866   -0.0834 C   0  0  0  0  0  0  0  0  0  0  0  0
   -1.0869    2.2810   -0.1329 H   0  0  0  0  0  0  0  0  0  0  0  0
    2.0696    1.1090    3.9444 C   0  0  0  0  0  0  0  0  0  0  0  0
    2.7144    1.9752    4.0081 H   0  0  0  0  0  0  0  0  0  0  0  0
    2.6155   -0.1722    4.0059 C   0  0  0  0  0  0  0  0  0  0  0  0
    3.6837   -0.3003    4.1186 H   0  0  0  0  0  0  0  0  0  0  0  0
    1.7839   -1.2878    3.9272 C   0  0  0  0  0  0  0  0  0  0  0  0
    2.2070   -2.2821    3.9769 H   0  0  0  0  0  0  0  0  0  0  0  0
    0.4075   -1.1221    3.7825 C   0  0  0  0  0  0  0  0  0  0  0  0
   -0.2376   -1.9875    3.7149 H   0  0  0  0  0  0  0  0  0  0  0  0
   -0.1381    0.1581    3.7186 C   0  0  0  0  0  0  0  0  0  0  0  0
   -1.2047    0.2859    3.5954 H   0  0  0  0  0  0  0  0  0  0  0  0
    0.6932    1.2734    3.8006 C   0  0  0  0  0  0  0  0  0  0  0  0
    0.2697    2.2673    3.7483 H   0  0  0  0  0  0  0  0  0  0  0  0
  1  3  1  0  0  0  0
  1  2  1  0  0  0  0
  3  4  1  0  0  0  0
  5  6  1  0  0  0  0
  5  3  2  0  0  0  0
  7  5  1  0  0  0  0
  8  7  1  0  0  0  0
  9  7  2  0  0  0  0
  9 11  1  0  0  0  0
 10  9  1  0  0  0  0
 11  1  2  0  0  0  0
 12 11  1  0  0  0  0
 13 15  1  0  0  0  0
 13 14  1  0  0  0  0
 15 16  1  0  0  0  0
 17 18  1  0  0  0  0
 17 15  2  0  0  0  0
 19 17  1  0  0  0  0
 20 19  1  0  0  0  0
 21 19  2  0  0  0  0
 21 23  1  0  0  0  0
 22 21  1  0  0  0  0
 23 13  2  0  0  0  0
 24 23  1  0  0  0  0
M  END
>  <SMILES>
c1ccccc1.c1ccccc1

>  <MoleculeName>
BenzeneBenzenepipi110

>  <Distance Scale>
1.1

>  <Energy Value>
-2.58

$$$$
/home/S66X8/3204_64PeptideEthene095.xyz
 OpenBabel06262409173D

 18 16  0  0  0  0  0  0  0  0999 V2000
    1.6297    0.5030    0.2701 C   0  0  0  0  0  0  0  0  0  0  0  0
    1.6416    1.4592   -0.2481 H   0  0  0  0  0  0  0  0  0  0  0  0
    2.3153   -0.1836   -0.2176 H   0  0  0  0  0  0  0  0  0  0  0  0
    1.9697    0.6494    1.2940 H   0  0  0  0  0  0  0  0  0  0  0  0
    0.2618   -0.1329    0.3146 C   0  0  0  0  0  0  0  0  0  0  0  0
    0.0993   -1.3096    0.6118 O   0  0  0  0  0  0  0  0  0  0  0  0
   -0.7735    0.7025    0.0221 N   0  0  0  0  0  0  0  0  0  0  0  0
   -0.5690    1.6666   -0.1658 H   0  0  0  0  0  0  0  0  0  0  0  0
   -2.1500    0.2660    0.0951 C   0  0  0  0  0  0  0  0  0  0  0  0
   -2.1447   -0.8194    0.1009 H   0  0  0  0  0  0  0  0  0  0  0  0
   -2.6405    0.6158    1.0036 H   0  0  0  0  0  0  0  0  0  0  0  0
   -2.7077    0.6208   -0.7683 H   0  0  0  0  0  0  0  0  0  0  0  0
   -0.0583    0.5188    3.6933 C   0  0  0  0  0  0  0  0  0  0  0  0
   -0.0632    1.2609    4.4792 H   0  0  0  0  0  0  0  0  0  0  0  0
   -0.7068    0.6865    2.8446 H   0  0  0  0  0  0  0  0  0  0  0  0
    0.7102   -0.5682    3.7631 C   0  0  0  0  0  0  0  0  0  0  0  0
    1.3555   -0.7400    4.6132 H   0  0  0  0  0  0  0  0  0  0  0  0
    0.7051   -1.3034    2.9708 H   0  0  0  0  0  0  0  0  0  0  0  0
  1  5  1  0  0  0  0
  1  4  1  0  0  0  0
  2  1  1  0  0  0  0
  3  1  1  0  0  0  0
  5  6  2  0  0  0  0
  7  9  1  0  0  0  0
  7  5  1  0  0  0  0
  8  7  1  0  0  0  0
  9 10  1  0  0  0  0
  9 11  1  0  0  0  0
 12  9  1  0  0  0  0
 13 16  2  0  0  0  0
 13 14  1  0  0  0  0
 15 13  1  0  0  0  0
 16 17  1  0  0  0  0
 18 16  1  0  0  0  0
M  END
>  <SMILES>
CC(=O)NC.C=C

>  <MoleculeName>
PeptideEthene095

>  <Distance Scale>
0.95

>  <Energy Value>
-2.95

$$$$
/home/S66X8/2886_24BenzeneBenzenepipi105.xyz
 OpenBabel06262409173D

 24 24  0  0  0  0  0  0  0  0999 V2000
    0.7126    1.1210    0.0605 C   0  0  0  0  0  0  0  0  0  0  0  0
    1.3578    1.9864    0.1277 H   0  0  0  0  0  0  0  0  0  0  0  0
    1.2582   -0.1593    0.1242 C   0  0  0  0  0  0  0  0  0  0  0  0
    2.3250   -0.2871    0.2467 H   0  0  0  0  0  0  0  0  0  0  0  0
    0.4269   -1.2745    0.0427 C   0  0  0  0  0  0  0  0  0  0  0  0
    0.8504   -2.2684    0.0947 H   0  0  0  0  0  0  0  0  0  0  0  0
   -0.9496   -1.1101   -0.1003 C   0  0  0  0  0  0  0  0  0  0  0  0
   -1.5945   -1.9763   -0.1637 H   0  0  0  0  0  0  0  0  0  0  0  0
   -1.4955    0.1711   -0.1615 C   0  0  0  0  0  0  0  0  0  0  0  0
   -2.5638    0.2992   -0.2737 H   0  0  0  0  0  0  0  0  0  0  0  0
   -0.6638    1.2866   -0.0834 C   0  0  0  0  0  0  0  0  0  0  0  0
   -1.0869    2.2810   -0.1329 H   0  0  0  0  0  0  0  0  0  0  0  0
    2.0098    1.1096    3.7732 C   0  0  0  0  0  0  0  0  0  0  0  0
    2.6546    1.9757    3.8370 H   0  0  0  0  0  0  0  0  0  0  0  0
    2.5557   -0.1716    3.8348 C   0  0  0  0  0  0  0  0  0  0  0  0
    3.6239   -0.2997    3.9475 H   0  0  0  0  0  0  0  0  0  0  0  0
    1.7241   -1.2872    3.7561 C   0  0  0  0  0  0  0  0  0  0  0  0
    2.1471   -2.2816    3.8058 H   0  0  0  0  0  0  0  0  0  0  0  0
    0.3477   -1.1216    3.6114 C   0  0  0  0  0  0  0  0  0  0  0  0
   -0.2974   -1.9870    3.5438 H   0  0  0  0  0  0  0  0  0  0  0  0
   -0.1979    0.1587    3.5474 C   0  0  0  0  0  0  0  0  0  0  0  0
   -1.2645    0.2865    3.4242 H   0  0  0  0  0  0  0  0  0  0  0  0
    0.6334    1.2739    3.6295 C   0  0  0  0  0  0  0  0  0  0  0  0
    0.2098    2.2679    3.5771 H   0  0  0  0  0  0  0  0  0  0  0  0
  1  3  1  0  0  0  0
  1  2  1  0  0  0  0
  3  4  1  0  0  0  0
  5  6  1  0  0  0  0
  5  3  2  0  0  0  0
  7  5  1  0  0  0  0
  8  7  1  0  0  0  0
  9  7  2  0  0  0  0
  9 11  1  0  0  0  0
 10  9  1  0  0  0  0
 11  1  2  0  0  0  0
 12 11  1  0  0  0  0
 13 15  1  0  0  0  0
 13 14  1  0  0  0  0
 15 16  1  0  0  0  0
 17 18  1  0  0  0  0
 17 15  2  0  0  0  0
 19 17  1  0  0  0  0
 20 19  1  0  0  0  0
 21 19  2  0  0  0  0
 21 23  1  0  0  0  0
 22 21  1  0  0  0  0
 23 13  2  0  0  0  0
 24 23  1  0  0  0  0
M  END
>  <SMILES>
c1ccccc1.c1ccccc1

>  <MoleculeName>
BenzeneBenzenepipi105

>  <Distance Scale>
1.05

>  <Energy Value>
-2.8

$$$$
/home/S66X8/3017_40BenzeneNeopentane150.xyz
 OpenBabel06262409173D

 29 28  0  0  0  0  0  0  0  0999 V2000
    0.3120    0.5610    0.4967 C   0  0  0  0  0  0  0  0  0  0  0  0
    0.7421    1.5534    0.4816 H   0  0  0  0  0  0  0  0  0  0  0  0
    1.1422   -0.5581    0.5361 C   0  0  0  0  0  0  0  0  0  0  0  0
    2.2165   -0.4343    0.5524 H   0  0  0  0  0  0  0  0  0  0  0  0
    0.5878   -1.8367    0.5541 C   0  0  0  0  0  0  0  0  0  0  0  0
    1.2319   -2.7048    0.5852 H   0  0  0  0  0  0  0  0  0  0  0  0
   -0.7967   -1.9964    0.5330 C   0  0  0  0  0  0  0  0  0  0  0  0
   -1.2268   -2.9884    0.5486 H   0  0  0  0  0  0  0  0  0  0  0  0
   -1.6269   -0.8775    0.4942 C   0  0  0  0  0  0  0  0  0  0  0  0
   -2.7011   -1.0013    0.4798 H   0  0  0  0  0  0  0  0  0  0  0  0
   -1.0727    0.4012    0.4760 C   0  0  0  0  0  0  0  0  0  0  0  0
   -1.7170    1.2694    0.4459 H   0  0  0  0  0  0  0  0  0  0  0  0
    0.1070    0.4555    6.4060 C   0  0  0  0  0  0  0  0  0  0  0  0
    1.5533    0.6342    5.9511 C   0  0  0  0  0  0  0  0  0  0  0  0
    1.9691    1.5675    6.3345 H   0  0  0  0  0  0  0  0  0  0  0  0
    2.1767   -0.1864    6.3099 H   0  0  0  0  0  0  0  0  0  0  0  0
    1.6139    0.6536    4.8621 H   0  0  0  0  0  0  0  0  0  0  0  0
    0.0526    0.4241    7.9309 C   0  0  0  0  0  0  0  0  0  0  0  0
   -0.9732    0.2967    8.2800 H   0  0  0  0  0  0  0  0  0  0  0  0
    0.6480   -0.4016    8.3234 H   0  0  0  0  0  0  0  0  0  0  0  0
    0.4409    1.3520    8.3538 H   0  0  0  0  0  0  0  0  0  0  0  0
   -0.4423   -0.8540    5.8457 C   0  0  0  0  0  0  0  0  0  0  0  0
   -1.4772   -1.0043    6.1584 H   0  0  0  0  0  0  0  0  0  0  0  0
    0.1441   -1.7030    6.2015 H   0  0  0  0  0  0  0  0  0  0  0  0
   -0.4136   -0.8545    4.7554 H   0  0  0  0  0  0  0  0  0  0  0  0
   -0.7343    1.6200    5.8898 C   0  0  0  0  0  0  0  0  0  0  0  0
   -0.7128    1.6561    4.7998 H   0  0  0  0  0  0  0  0  0  0  0  0
   -1.7741    1.5163    6.2043 H   0  0  0  0  0  0  0  0  0  0  0  0
   -0.3587    2.5707    6.2719 H   0  0  0  0  0  0  0  0  0  0  0  0
  1  3  1  0  0  0  0
  2  1  1  0  0  0  0
  3  4  1  0  0  0  0
  3  5  2  0  0  0  0
  5  6  1  0  0  0  0
  7  8  1  0  0  0  0
  7  5  1  0  0  0  0
  9  7  2  0  0  0  0
 10  9  1  0  0  0  0
 11  9  1  0  0  0  0
 11  1  2  0  0  0  0
 12 11  1  0  0  0  0
 13 18  1  0  0  0  0
 14 16  1  0  0  0  0
 14 15  1  0  0  0  0
 14 13  1  0  0  0  0
 17 14  1  0  0  0  0
 18 19  1  0  0  0  0
 18 20  1  0  0  0  0
 18 21  1  0  0  0  0
 22 23  1  0  0  0  0
 22 24  1  0  0  0  0
 22 13  1  0  0  0  0
 25 22  1  0  0  0  0
 26 28  1  0  0  0  0
 26 29  1  0  0  0  0
 26 13  1  0  0  0  0
 27 26  1  0  0  0  0
M  END
>  <SMILES>
c1ccccc1.C(C)(C)(C)C

>  <MoleculeName>
BenzeneNeopentane150

>  <Distance Scale>
1.5

>  <Energy Value>
-0.77

$$$$
/home/S66X8/3101_51EthyneEthyneTS100.xyz
 OpenBabel06262409173D

  8  6  0  0  0  0  0  0  0  0999 V2000
   -0.6017   -0.0286    0.3849 C   0  0  0  0  0  0  0  0  0  0  0  0
   -1.6637   -0.0285    0.3790 H   0  0  0  0  0  0  0  0  0  0  0  0
    0.6101   -0.0287    0.3882 C   0  0  0  0  0  0  0  0  0  0  0  0
    1.6721   -0.0288    0.3880 H   0  0  0  0  0  0  0  0  0  0  0  0
   -0.0074    0.1011    4.1634 C   0  0  0  0  0  0  0  0  0  0  0  0
   -0.0040    0.0673    3.1001 H   0  0  0  0  0  0  0  0  0  0  0  0
   -0.0114    0.1394    5.3748 C   0  0  0  0  0  0  0  0  0  0  0  0
   -0.0146    0.1727    6.4357 H   0  0  0  0  0  0  0  0  0  0  0  0
  1  3  3  0  0  0  0
  2  1  1  0  0  0  0
  4  3  1  0  0  0  0
  5  7  3  0  0  0  0
  6  5  1  0  0  0  0
  7  8  1  0  0  0  0
M  END
>  <SMILES>
C#C.C#C

>  <MoleculeName>
EthyneEthyneTS100

>  <Distance Scale>
1.0

>  <Energy Value>
-1.52

$$$$
/home/S66X8/2828_17UracilUracilBP095.xyz
 OpenBabel06262409173D

 24 24  0  0  0  0  0  0  0  0999 V2000
   -0.7300    0.0228    0.0009 N   0  0  0  0  0  0  0  0  0  0  0  0
    0.2984    0.0740    0.0016 H   0  0  0  0  0  0  0  0  0  0  0  0
   -1.2968   -1.2404    0.0015 C   0  0  0  0  0  0  0  0  0  0  0  0
   -0.5941   -2.2535    0.0026 O   0  0  0  0  0  0  0  0  0  0  0  0
   -2.7436   -1.2623    0.0005 C   0  0  0  0  0  0  0  0  0  0  0  0
   -3.2496   -2.2118    0.0008 H   0  0  0  0  0  0  0  0  0  0  0  0
   -3.4220   -0.0959   -0.0009 C   0  0  0  0  0  0  0  0  0  0  0  0
   -4.5009   -0.0492   -0.0017 H   0  0  0  0  0  0  0  0  0  0  0  0
   -2.7748    1.1054   -0.0014 N   0  0  0  0  0  0  0  0  0  0  0  0
   -3.2838    1.9739   -0.0025 H   0  0  0  0  0  0  0  0  0  0  0  0
   -1.3915    1.2370   -0.0005 C   0  0  0  0  0  0  0  0  0  0  0  0
   -0.8398    2.3170   -0.0010 O   0  0  0  0  0  0  0  0  0  0  0  0
    4.0641   -1.0816    0.0005 N   0  0  0  0  0  0  0  0  0  0  0  0
    4.5114   -0.1750    0.0009 H   0  0  0  0  0  0  0  0  0  0  0  0
    4.9202   -2.1962   -0.0010 C   0  0  0  0  0  0  0  0  0  0  0  0
    6.1296   -2.0445   -0.0018 O   0  0  0  0  0  0  0  0  0  0  0  0
    4.2060   -3.4583   -0.0015 C   0  0  0  0  0  0  0  0  0  0  0  0
    4.7726   -4.3734   -0.0026 H   0  0  0  0  0  0  0  0  0  0  0  0
    2.8558   -3.4622   -0.0005 C   0  0  0  0  0  0  0  0  0  0  0  0
    2.2788   -4.3751   -0.0009 H   0  0  0  0  0  0  0  0  0  0  0  0
    2.1178   -2.3113    0.0009 N   0  0  0  0  0  0  0  0  0  0  0  0
    1.0915   -2.3327    0.0016 H   0  0  0  0  0  0  0  0  0  0  0  0
    2.6906   -1.0666    0.0015 C   0  0  0  0  0  0  0  0  0  0  0  0
    2.0403   -0.0254    0.0027 O   0  0  0  0  0  0  0  0  0  0  0  0
  1  3  1  0  0  0  0
  1  2  1  0  0  0  0
  3  4  2  0  0  0  0
  5  6  1  0  0  0  0
  5  3  1  0  0  0  0
  7  5  2  0  0  0  0
  8  7  1  0  0  0  0
  9  7  1  0  0  0  0
  9 11  1  0  0  0  0
 10  9  1  0  0  0  0
 11  1  1  0  0  0  0
 12 11  2  0  0  0  0
 13 14  1  0  0  0  0
 13 23  1  0  0  0  0
 15 13  1  0  0  0  0
 16 15  2  0  0  0  0
 17 15  1  0  0  0  0
 17 19  2  0  0  0  0
 18 17  1  0  0  0  0
 19 21  1  0  0  0  0
 20 19  1  0  0  0  0
 21 23  1  0  0  0  0
 21 22  1  0  0  0  0
 23 24  2  0  0  0  0
M  END
>  <SMILES>
[nH]1c(=O)cc[nH]c1=O.[nH]1c(=O)cc[nH]c1=O

>  <MoleculeName>
UracilUracilBP095

>  <Distance Scale>
0.95

>  <Energy Value>
-16.9

$$$$
/home/S66X8/2933_30BenzeneEthene100.xyz
 OpenBabel06262409173D

 18 17  0  0  0  0  0  0  0  0999 V2000
    0.8355    1.1152    0.0214 C   0  0  0  0  0  0  0  0  0  0  0  0
    1.4843    1.9806    0.0195 H   0  0  0  0  0  0  0  0  0  0  0  0
    1.3833   -0.1661    0.0238 C   0  0  0  0  0  0  0  0  0  0  0  0
    2.4571   -0.2952    0.0228 H   0  0  0  0  0  0  0  0  0  0  0  0
    0.5476   -1.2813    0.0217 C   0  0  0  0  0  0  0  0  0  0  0  0
    0.9729   -2.2758    0.0198 H   0  0  0  0  0  0  0  0  0  0  0  0
   -0.8355   -1.1152    0.0214 C   0  0  0  0  0  0  0  0  0  0  0  0
   -1.4843   -1.9806    0.0195 H   0  0  0  0  0  0  0  0  0  0  0  0
   -1.3833    0.1662    0.0238 C   0  0  0  0  0  0  0  0  0  0  0  0
   -2.4572    0.2952    0.0228 H   0  0  0  0  0  0  0  0  0  0  0  0
   -0.5476    1.2813    0.0217 C   0  0  0  0  0  0  0  0  0  0  0  0
   -0.9729    2.2758    0.0198 H   0  0  0  0  0  0  0  0  0  0  0  0
    0.6558   -0.1168    3.4586 C   0  0  0  0  0  0  0  0  0  0  0  0
    1.0472   -1.1239    3.4541 H   0  0  0  0  0  0  0  0  0  0  0  0
    1.3709    0.6933    3.4541 H   0  0  0  0  0  0  0  0  0  0  0  0
   -0.6558    0.1168    3.4586 C   0  0  0  0  0  0  0  0  0  0  0  0
   -1.3708   -0.6933    3.4541 H   0  0  0  0  0  0  0  0  0  0  0  0
   -1.0472    1.1239    3.4541 H   0  0  0  0  0  0  0  0  0  0  0  0
  1 11  2  0  0  0  0
  1  3  1  0  0  0  0
  2  1  1  0  0  0  0
  4  3  1  0  0  0  0
  5  3  2  0  0  0  0
  6  5  1  0  0  0  0
  7  5  1  0  0  0  0
  7  9  2  0  0  0  0
  8  7  1  0  0  0  0
 10  9  1  0  0  0  0
 11  9  1  0  0  0  0
 12 11  1  0  0  0  0
 13 16  2  0  0  0  0
 14 13  1  0  0  0  0
 15 13  1  0  0  0  0
 17 16  1  0  0  0  0
 18 16  1  0  0  0  0
M  END
>  <SMILES>
c1ccccc1.C=C

>  <MoleculeName>
BenzeneEthene100

>  <Distance Scale>
1.0

>  <Energy Value>
-1.41

$$$$
/home/S66X8/2819_16PeptideWater090.xyz
 OpenBabel06262409173D

 15 13  0  0  0  0  0  0  0  0999 V2000
   -0.7243   -0.7049    2.2839 C   0  0  0  0  0  0  0  0  0  0  0  0
    0.3353   -0.6299    2.0532 H   0  0  0  0  0  0  0  0  0  0  0  0
   -0.9517   -1.7120    2.6257 H   0  0  0  0  0  0  0  0  0  0  0  0
   -0.9696   -0.0221    3.0938 H   0  0  0  0  0  0  0  0  0  0  0  0
   -1.6149   -0.3874    1.1041 C   0  0  0  0  0  0  0  0  0  0  0  0
   -2.8373   -0.4150    1.1941 O   0  0  0  0  0  0  0  0  0  0  0  0
   -0.9534   -0.0764   -0.0408 N   0  0  0  0  0  0  0  0  0  0  0  0
    0.0538   -0.0756   -0.0366 H   0  0  0  0  0  0  0  0  0  0  0  0
   -1.6581    0.2501   -1.2586 C   0  0  0  0  0  0  0  0  0  0  0  0
   -2.7204    0.1769   -1.0467 H   0  0  0  0  0  0  0  0  0  0  0  0
   -1.4303    1.2630   -1.5881 H   0  0  0  0  0  0  0  0  0  0  0  0
   -1.4056   -0.4443   -2.0586 H   0  0  0  0  0  0  0  0  0  0  0  0
    1.9234   -0.0599   -0.1447 O   0  0  0  0  0  0  0  0  0  0  0  0
    2.4884   -0.7729   -0.4499 H   0  0  0  0  0  0  0  0  0  0  0  0
    2.5032    0.7043   -0.1208 H   0  0  0  0  0  0  0  0  0  0  0  0
  1  3  1  0  0  0  0
  1  4  1  0  0  0  0
  2  1  1  0  0  0  0
  5  6  2  0  0  0  0
  5  1  1  0  0  0  0
  7  8  1  0  0  0  0
  7  5  1  0  0  0  0
  9 10  1  0  0  0  0
  9  7  1  0  0  0  0
 11  9  1  0  0  0  0
 12  9  1  0  0  0  0
 13 15  1  0  0  0  0
 14 13  1  0  0  0  0
M  END
>  <SMILES>
CC(=O)NC.O

>  <MoleculeName>
PeptideWater090

>  <Distance Scale>
0.9

>  <Energy Value>
-4.7

$$$$
/home/S66X8/2798_13PeptideMeOH105.xyz
 OpenBabel06262409173D

 18 16  0  0  0  0  0  0  0  0999 V2000
   -0.8493   -0.3395    2.4917 C   0  0  0  0  0  0  0  0  0  0  0  0
    0.1843   -0.0110    2.4162 H   0  0  0  0  0  0  0  0  0  0  0  0
   -0.8825   -1.3421    2.9127 H   0  0  0  0  0  0  0  0  0  0  0  0
   -1.3908    0.3169    3.1684 H   0  0  0  0  0  0  0  0  0  0  0  0
   -1.5640   -0.3533    1.1595 C   0  0  0  0  0  0  0  0  0  0  0  0
   -2.7495   -0.6515    1.0568 O   0  0  0  0  0  0  0  0  0  0  0  0
   -0.8017   -0.0274    0.0883 N   0  0  0  0  0  0  0  0  0  0  0  0
    0.1612    0.2404    0.2187 H   0  0  0  0  0  0  0  0  0  0  0  0
   -1.3853   -0.0024   -1.2341 C   0  0  0  0  0  0  0  0  0  0  0  0
   -1.8916   -0.9428   -1.4401 H   0  0  0  0  0  0  0  0  0  0  0  0
   -2.1200    0.7962   -1.3309 H   0  0  0  0  0  0  0  0  0  0  0  0
   -0.5946    0.1496   -1.9631 H   0  0  0  0  0  0  0  0  0  0  0  0
    2.2620    0.2528    0.4686 O   0  0  0  0  0  0  0  0  0  0  0  0
    2.9828    0.8801    0.5590 H   0  0  0  0  0  0  0  0  0  0  0  0
    2.7811   -1.0526    0.7025 C   0  0  0  0  0  0  0  0  0  0  0  0
    1.9485   -1.7414    0.5969 H   0  0  0  0  0  0  0  0  0  0  0  0
    3.5472   -1.3216   -0.0244 H   0  0  0  0  0  0  0  0  0  0  0  0
    3.1892   -1.1541    1.7081 H   0  0  0  0  0  0  0  0  0  0  0  0
  1  3  1  0  0  0  0
  1  4  1  0  0  0  0
  2  1  1  0  0  0  0
  5  1  1  0  0  0  0
  6  5  2  0  0  0  0
  7  8  1  0  0  0  0
  7  5  1  0  0  0  0
  9  7  1  0  0  0  0
 10  9  1  0  0  0  0
 11  9  1  0  0  0  0
 12  9  1  0  0  0  0
 13 14  1  0  0  0  0
 13 15  1  0  0  0  0
 15 18  1  0  0  0  0
 16 15  1  0  0  0  0
 17 15  1  0  0  0  0
M  END
>  <SMILES>
CC(=O)NC.OC

>  <MoleculeName>
PeptideMeOH105

>  <Distance Scale>
1.05

>  <Energy Value>
-6.03

$$$$
/home/S66X8/3142_56BenzeneMeNH2NHpi105.xyz
 OpenBabel06262409173D

 19 18  0  0  0  0  0  0  0  0999 V2000
    0.6923    1.0883    0.3248 C   0  0  0  0  0  0  0  0  0  0  0  0
    1.2819    1.9919    0.2525 H   0  0  0  0  0  0  0  0  0  0  0  0
    1.3182   -0.1569    0.2869 C   0  0  0  0  0  0  0  0  0  0  0  0
    2.3931   -0.2195    0.1884 H   0  0  0  0  0  0  0  0  0  0  0  0
    0.5580   -1.3220    0.3814 C   0  0  0  0  0  0  0  0  0  0  0  0
    1.0439   -2.2876    0.3576 H   0  0  0  0  0  0  0  0  0  0  0  0
   -0.8276   -1.2414    0.5117 C   0  0  0  0  0  0  0  0  0  0  0  0
   -1.4167   -2.1453    0.5853 H   0  0  0  0  0  0  0  0  0  0  0  0
   -1.4534    0.0037    0.5484 C   0  0  0  0  0  0  0  0  0  0  0  0
   -2.5282    0.0657    0.6498 H   0  0  0  0  0  0  0  0  0  0  0  0
   -0.6935    1.1684    0.4562 C   0  0  0  0  0  0  0  0  0  0  0  0
   -1.1787    2.1344    0.4857 H   0  0  0  0  0  0  0  0  0  0  0  0
    0.2599   -0.2367    4.0132 N   0  0  0  0  0  0  0  0  0  0  0  0
    0.3945   -0.1927    3.0101 H   0  0  0  0  0  0  0  0  0  0  0  0
    0.4014    0.7084    4.3456 H   0  0  0  0  0  0  0  0  0  0  0  0
   -1.1162   -0.6431    4.2906 C   0  0  0  0  0  0  0  0  0  0  0  0
   -1.2741   -0.6717    5.3672 H   0  0  0  0  0  0  0  0  0  0  0  0
   -1.8875   -0.0027    3.8505 H   0  0  0  0  0  0  0  0  0  0  0  0
   -1.2709   -1.6527    3.9150 H   0  0  0  0  0  0  0  0  0  0  0  0
  1 11  1  0  0  0  0
  2  1  1  0  0  0  0
  3  1  2  0  0  0  0
  3  5  1  0  0  0  0
  4  3  1  0  0  0  0
  5  7  2  0  0  0  0
  6  5  1  0  0  0  0
  7  9  1  0  0  0  0
  7  8  1  0  0  0  0
  9 10  1  0  0  0  0
 11 12  1  0  0  0  0
 11  9  2  0  0  0  0
 13 16  1  0  0  0  0
 13 15  1  0  0  0  0
 14 13  1  0  0  0  0
 16 17  1  0  0  0  0
 18 16  1  0  0  0  0
 19 16  1  0  0  0  0
M  END
>  <SMILES>
c1ccccc1.NC

>  <MoleculeName>
BenzeneMeNH2NHpi105

>  <Distance Scale>
1.05

>  <Energy Value>
-3.12

$$$$
/home/S66X8/3106_51EthyneEthyneTS200.xyz
 OpenBabel06262409173D

  8  6  0  0  0  0  0  0  0  0999 V2000
   -0.6017   -0.0286    0.3849 C   0  0  0  0  0  0  0  0  0  0  0  0
   -1.6637   -0.0285    0.3790 H   0  0  0  0  0  0  0  0  0  0  0  0
    0.6101   -0.0287    0.3882 C   0  0  0  0  0  0  0  0  0  0  0  0
    1.6721   -0.0288    0.3880 H   0  0  0  0  0  0  0  0  0  0  0  0
   -0.0159    0.2006    6.9772 C   0  0  0  0  0  0  0  0  0  0  0  0
   -0.0125    0.1668    5.9139 H   0  0  0  0  0  0  0  0  0  0  0  0
   -0.0199    0.2388    8.1887 C   0  0  0  0  0  0  0  0  0  0  0  0
   -0.0231    0.2722    9.2496 H   0  0  0  0  0  0  0  0  0  0  0  0
  1  3  3  0  0  0  0
  2  1  1  0  0  0  0
  4  3  1  0  0  0  0
  5  7  3  0  0  0  0
  6  5  1  0  0  0  0
  7  8  1  0  0  0  0
M  END
>  <SMILES>
C#C.C#C

>  <MoleculeName>
EthyneEthyneTS200

>  <Distance Scale>
2.0

>  <Energy Value>
-0.14

$$$$
/home/S66X8/3156_58PyridinePyridineCHN095.xyz
 OpenBabel06262409173D

 22 22  0  0  0  0  0  0  0  0999 V2000
   -0.9412    0.7900    0.0117 N   0  0  0  0  0  0  0  0  0  0  0  0
   -0.9228   -0.5524    0.0354 C   0  0  0  0  0  0  0  0  0  0  0  0
    0.0572   -1.0156    0.0514 H   0  0  0  0  0  0  0  0  0  0  0  0
   -2.0765   -1.3330    0.0393 C   0  0  0  0  0  0  0  0  0  0  0  0
   -1.9965   -2.4106    0.0589 H   0  0  0  0  0  0  0  0  0  0  0  0
   -3.3163   -0.7033    0.0176 C   0  0  0  0  0  0  0  0  0  0  0  0
   -4.2316   -1.2791    0.0198 H   0  0  0  0  0  0  0  0  0  0  0  0
   -3.3489    0.6870   -0.0071 C   0  0  0  0  0  0  0  0  0  0  0  0
   -4.2854    1.2261   -0.0247 H   0  0  0  0  0  0  0  0  0  0  0  0
   -2.1431    1.3826   -0.0089 C   0  0  0  0  0  0  0  0  0  0  0  0
   -2.1381    2.4657   -0.0278 H   0  0  0  0  0  0  0  0  0  0  0  0
    2.3423   -0.9551    0.0428 N   0  0  0  0  0  0  0  0  0  0  0  0
    3.5441   -1.5483    0.0449 C   0  0  0  0  0  0  0  0  0  0  0  0
    3.5389   -2.6312    0.0667 H   0  0  0  0  0  0  0  0  0  0  0  0
    4.7501   -0.8533    0.0209 C   0  0  0  0  0  0  0  0  0  0  0  0
    5.6865   -1.3929    0.0239 H   0  0  0  0  0  0  0  0  0  0  0  0
    4.7177    0.5370   -0.0069 C   0  0  0  0  0  0  0  0  0  0  0  0
    5.6331    1.1122   -0.0261 H   0  0  0  0  0  0  0  0  0  0  0  0
    3.4781    1.1673   -0.0094 C   0  0  0  0  0  0  0  0  0  0  0  0
    3.3983    2.2448   -0.0305 H   0  0  0  0  0  0  0  0  0  0  0  0
    2.3241    0.3873    0.0158 C   0  0  0  0  0  0  0  0  0  0  0  0
    1.3442    0.8509    0.0142 H   0  0  0  0  0  0  0  0  0  0  0  0
  1  2  1  0  0  0  0
  2  4  2  0  0  0  0
  2  3  1  0  0  0  0
  4  5  1  0  0  0  0
  6  7  1  0  0  0  0
  6  4  1  0  0  0  0
  8  6  2  0  0  0  0
  9  8  1  0  0  0  0
 10  8  1  0  0  0  0
 10  1  2  0  0  0  0
 11 10  1  0  0  0  0
 12 13  1  0  0  0  0
 13 14  1  0  0  0  0
 15 16  1  0  0  0  0
 15 13  2  0  0  0  0
 17 15  1  0  0  0  0
 18 17  1  0  0  0  0
 19 17  2  0  0  0  0
 19 21  1  0  0  0  0
 20 19  1  0  0  0  0
 21 12  2  0  0  0  0
 22 21  1  0  0  0  0
M  END
>  <SMILES>
n1ccccc1.n1ccccc1

>  <MoleculeName>
PyridinePyridineCHN095

>  <Distance Scale>
0.95

>  <Energy Value>
-3.82

$$$$
/home/S66X8/3165_59EthyneWaterCHO100.xyz
 OpenBabel06262409173D

  7  5  0  0  0  0  0  0  0  0999 V2000
   -1.0069   -0.0306   -0.0248 C   0  0  0  0  0  0  0  0  0  0  0  0
    0.0590   -0.0609   -0.0494 H   0  0  0  0  0  0  0  0  0  0  0  0
   -2.2187    0.0032    0.0026 C   0  0  0  0  0  0  0  0  0  0  0  0
   -3.2793    0.0335    0.0272 H   0  0  0  0  0  0  0  0  0  0  0  0
    2.2886   -0.1465   -0.1162 O   0  0  0  0  0  0  0  0  0  0  0  0
    2.8589   -0.7363    0.3808 H   0  0  0  0  0  0  0  0  0  0  0  0
    2.8606    0.2045   -0.8016 H   0  0  0  0  0  0  0  0  0  0  0  0
  1  3  3  0  0  0  0
  2  1  1  0  0  0  0
  3  4  1  0  0  0  0
  5  6  1  0  0  0  0
  7  5  1  0  0  0  0
M  END
>  <SMILES>
C#C.O

>  <MoleculeName>
EthyneWaterCHO100

>  <Distance Scale>
1.0

>  <Energy Value>
-2.85

$$$$
/home/S66X8/3195_63BenzeneAcOH090.xyz
 OpenBabel06262409173D

 20 19  0  0  0  0  0  0  0  0999 V2000
    0.6068    1.3304    0.3164 C   0  0  0  0  0  0  0  0  0  0  0  0
    1.2465    2.2023    0.3304 H   0  0  0  0  0  0  0  0  0  0  0  0
    1.1181    0.0872    0.6851 C   0  0  0  0  0  0  0  0  0  0  0  0
    2.1501   -0.0039    0.9938 H   0  0  0  0  0  0  0  0  0  0  0  0
    0.2929   -1.0361    0.6691 C   0  0  0  0  0  0  0  0  0  0  0  0
    0.6885   -2.0010    0.9554 H   0  0  0  0  0  0  0  0  0  0  0  0
   -1.0428   -0.9167    0.2882 C   0  0  0  0  0  0  0  0  0  0  0  0
   -1.6827   -1.7885    0.2793 H   0  0  0  0  0  0  0  0  0  0  0  0
   -1.5536    0.3273   -0.0799 C   0  0  0  0  0  0  0  0  0  0  0  0
   -2.5892    0.4203   -0.3773 H   0  0  0  0  0  0  0  0  0  0  0  0
   -0.7280    1.4508   -0.0668 C   0  0  0  0  0  0  0  0  0  0  0  0
   -1.1236    2.4157   -0.3539 H   0  0  0  0  0  0  0  0  0  0  0  0
    0.4528   -0.3212    3.7267 C   0  0  0  0  0  0  0  0  0  0  0  0
    1.6482   -0.1573    3.8032 O   0  0  0  0  0  0  0  0  0  0  0  0
   -0.1268   -1.5326    3.9261 O   0  0  0  0  0  0  0  0  0  0  0  0
    0.6077   -2.1337    4.1192 H   0  0  0  0  0  0  0  0  0  0  0  0
   -0.5691    0.7227    3.4060 C   0  0  0  0  0  0  0  0  0  0  0  0
   -0.0908    1.6937    3.3592 H   0  0  0  0  0  0  0  0  0  0  0  0
   -1.0219    0.4895    2.4433 H   0  0  0  0  0  0  0  0  0  0  0  0
   -1.3540    0.7172    4.1585 H   0  0  0  0  0  0  0  0  0  0  0  0
  1  2  1  0  0  0  0
  1  3  1  0  0  0  0
  3  4  1  0  0  0  0
  5  3  2  0  0  0  0
  5  6  1  0  0  0  0
  7  5  1  0  0  0  0
  8  7  1  0  0  0  0
  9 11  1  0  0  0  0
  9  7  2  0  0  0  0
 10  9  1  0  0  0  0
 11  1  2  0  0  0  0
 12 11  1  0  0  0  0
 13 14  2  0  0  0  0
 13 15  1  0  0  0  0
 15 16  1  0  0  0  0
 17 13  1  0  0  0  0
 17 20  1  0  0  0  0
 18 17  1  0  0  0  0
 19 17  1  0  0  0  0
M  END
>  <SMILES>
c1ccccc1.C(=O)(O)C

>  <MoleculeName>
BenzeneAcOH090

>  <Distance Scale>
0.9

>  <Energy Value>
-2.73

$$$$
/home/S66X8/2853_20AcOHAcOH100.xyz
 OpenBabel06262409173D

 16 14  0  0  0  0  0  0  0  0999 V2000
   -1.0617    1.2971    0.2921 C   0  0  0  0  0  0  0  0  0  0  0  0
   -0.3582    2.2705    0.5318 O   0  0  0  0  0  0  0  0  0  0  0  0
   -0.5893    0.0949    0.0038 O   0  0  0  0  0  0  0  0  0  0  0  0
    0.4044    0.1277    0.0184 H   0  0  0  0  0  0  0  0  0  0  0  0
   -2.5584    1.3425    0.2963 C   0  0  0  0  0  0  0  0  0  0  0  0
   -2.8960    2.3475    0.5183 H   0  0  0  0  0  0  0  0  0  0  0  0
   -2.9329    1.0224   -0.6730 H   0  0  0  0  0  0  0  0  0  0  0  0
   -2.9372    0.6449    1.0396 H   0  0  0  0  0  0  0  0  0  0  0  0
    2.7996    1.1085    0.2713 C   0  0  0  0  0  0  0  0  0  0  0  0
    2.0959    0.1351    0.0315 O   0  0  0  0  0  0  0  0  0  0  0  0
    2.3271    2.3109    0.5590 O   0  0  0  0  0  0  0  0  0  0  0  0
    1.3334    2.2780    0.5446 H   0  0  0  0  0  0  0  0  0  0  0  0
    4.2963    1.0626    0.2693 C   0  0  0  0  0  0  0  0  0  0  0  0
    4.6339    0.0612    0.0318 H   0  0  0  0  0  0  0  0  0  0  0  0
    4.6778    1.7729   -0.4602 H   0  0  0  0  0  0  0  0  0  0  0  0
    4.6678    1.3653    1.2454 H   0  0  0  0  0  0  0  0  0  0  0  0
  1  5  1  0  0  0  0
  1  2  2  0  0  0  0
  3  4  1  0  0  0  0
  3  1  1  0  0  0  0
  5  6  1  0  0  0  0
  5  8  1  0  0  0  0
  7  5  1  0  0  0  0
  9 11  1  0  0  0  0
 10  9  2  0  0  0  0
 12 11  1  0  0  0  0
 13  9  1  0  0  0  0
 13 16  1  0  0  0  0
 14 13  1  0  0  0  0
 15 13  1  0  0  0  0
M  END
>  <SMILES>
C(=O)(O)C.C(=O)(O)C

>  <MoleculeName>
AcOHAcOH100

>  <Distance Scale>
1.0

>  <Energy Value>
-19.09

$$$$
/home/S66X8/2927_29PyridineUracilpipi110.xyz
 OpenBabel06262409173D

 23 23  0  0  0  0  0  0  0  0999 V2000
    1.2108    0.0287    0.3297 N   0  0  0  0  0  0  0  0  0  0  0  0
    0.6119   -1.1584    0.1535 C   0  0  0  0  0  0  0  0  0  0  0  0
    1.2515   -2.0295    0.2193 H   0  0  0  0  0  0  0  0  0  0  0  0
   -0.7513   -1.3086   -0.0888 C   0  0  0  0  0  0  0  0  0  0  0  0
   -1.1704   -2.2969   -0.2134 H   0  0  0  0  0  0  0  0  0  0  0  0
   -1.5479   -0.1699   -0.1565 C   0  0  0  0  0  0  0  0  0  0  0  0
   -2.6110   -0.2460   -0.3388 H   0  0  0  0  0  0  0  0  0  0  0  0
   -0.9436    1.0706    0.0198 C   0  0  0  0  0  0  0  0  0  0  0  0
   -1.5188    1.9845   -0.0116 H   0  0  0  0  0  0  0  0  0  0  0  0
    0.4277    1.1161    0.2573 C   0  0  0  0  0  0  0  0  0  0  0  0
    0.9247    2.0681    0.3975 H   0  0  0  0  0  0  0  0  0  0  0  0
   -0.6842   -0.2674    3.6220 N   0  0  0  0  0  0  0  0  0  0  0  0
   -1.5791   -0.6992    3.4374 H   0  0  0  0  0  0  0  0  0  0  0  0
   -0.6840    1.1304    3.7150 C   0  0  0  0  0  0  0  0  0  0  0  0
   -1.7239    1.7586    3.6001 O   0  0  0  0  0  0  0  0  0  0  0  0
    0.6355    1.6895    3.9426 C   0  0  0  0  0  0  0  0  0  0  0  0
    0.7368    2.7567    4.0384 H   0  0  0  0  0  0  0  0  0  0  0  0
    1.7054    0.8708    4.0141 C   0  0  0  0  0  0  0  0  0  0  0  0
    2.7093    1.2395    4.1625 H   0  0  0  0  0  0  0  0  0  0  0  0
    1.5873   -0.4865    3.9015 N   0  0  0  0  0  0  0  0  0  0  0  0
    2.4008   -1.0787    3.8934 H   0  0  0  0  0  0  0  0  0  0  0  0
    0.3869   -1.1337    3.6751 C   0  0  0  0  0  0  0  0  0  0  0  0
    0.2948   -2.3391    3.5416 O   0  0  0  0  0  0  0  0  0  0  0  0
  2  3  1  0  0  0  0
  2  1  2  0  0  0  0
  4  2  1  0  0  0  0
  5  4  1  0  0  0  0
  6  4  2  0  0  0  0
  6  8  1  0  0  0  0
  7  6  1  0  0  0  0
  8 10  2  0  0  0  0
  9  8  1  0  0  0  0
 10  1  1  0  0  0  0
 10 11  1  0  0  0  0
 12 22  1  0  0  0  0
 12 14  1  0  0  0  0
 13 12  1  0  0  0  0
 14 16  1  0  0  0  0
 15 14  2  0  0  0  0
 16 18  2  0  0  0  0
 16 17  1  0  0  0  0
 18 19  1  0  0  0  0
 20 18  1  0  0  0  0
 21 20  1  0  0  0  0
 22 20  1  0  0  0  0
 23 22  2  0  0  0  0
M  END
>  <SMILES>
n1ccccc1.[nH]1c(=O)cc[nH]c1=O

>  <MoleculeName>
PyridineUracilpipi110

>  <Distance Scale>
1.1

>  <Energy Value>
-5.97

$$$$
/home/S66X8/3028_42UracilCyclopentane095.xyz
 OpenBabel06262409173D

 27 27  0  0  0  0  0  0  0  0999 V2000
    0.1957   -0.8447    0.8238 N   0  0  0  0  0  0  0  0  0  0  0  0
    0.4504   -1.7968    1.0498 H   0  0  0  0  0  0  0  0  0  0  0  0
   -1.1790   -0.5737    0.7595 C   0  0  0  0  0  0  0  0  0  0  0  0
   -1.9936   -1.4563    0.9669 O   0  0  0  0  0  0  0  0  0  0  0  0
   -1.4767    0.8112    0.4376 C   0  0  0  0  0  0  0  0  0  0  0  0
   -2.5064    1.1157    0.3639 H   0  0  0  0  0  0  0  0  0  0  0  0
   -0.4681    1.6830    0.2349 C   0  0  0  0  0  0  0  0  0  0  0  0
   -0.6384    2.7216   -0.0062 H   0  0  0  0  0  0  0  0  0  0  0  0
    0.8456    1.3060    0.3268 N   0  0  0  0  0  0  0  0  0  0  0  0
    1.5897    1.9689    0.1860 H   0  0  0  0  0  0  0  0  0  0  0  0
    1.2543    0.0195    0.6362 C   0  0  0  0  0  0  0  0  0  0  0  0
    2.4223   -0.3017    0.7319 O   0  0  0  0  0  0  0  0  0  0  0  0
    1.0529   -0.8614    4.2742 C   0  0  0  0  0  0  0  0  0  0  0  0
    1.5067   -0.9535    3.2862 H   0  0  0  0  0  0  0  0  0  0  0  0
    1.5974   -1.5254    4.9434 H   0  0  0  0  0  0  0  0  0  0  0  0
    1.1072    0.6045    4.7071 C   0  0  0  0  0  0  0  0  0  0  0  0
    2.0655    1.0774    4.4964 H   0  0  0  0  0  0  0  0  0  0  0  0
    0.9191    0.6862    5.7804 H   0  0  0  0  0  0  0  0  0  0  0  0
   -0.0602    1.2173    3.9364 C   0  0  0  0  0  0  0  0  0  0  0  0
    0.2142    1.3061    2.8829 H   0  0  0  0  0  0  0  0  0  0  0  0
   -0.3446    2.2085    4.2880 H   0  0  0  0  0  0  0  0  0  0  0  0
   -1.1771    0.1798    4.1074 C   0  0  0  0  0  0  0  0  0  0  0  0
   -1.9026    0.2034    3.2960 H   0  0  0  0  0  0  0  0  0  0  0  0
   -1.7212    0.3845    5.0296 H   0  0  0  0  0  0  0  0  0  0  0  0
   -0.4541   -1.1868    4.2111 C   0  0  0  0  0  0  0  0  0  0  0  0
   -0.6967   -1.8309    3.3677 H   0  0  0  0  0  0  0  0  0  0  0  0
   -0.7692   -1.7142    5.1101 H   0  0  0  0  0  0  0  0  0  0  0  0
  1  2  1  0  0  0  0
  3  1  1  0  0  0  0
  3  4  2  0  0  0  0
  5  3  1  0  0  0  0
  6  5  1  0  0  0  0
  7  9  1  0  0  0  0
  7  5  2  0  0  0  0
  8  7  1  0  0  0  0
  9 11  1  0  0  0  0
 10  9  1  0  0  0  0
 11 12  2  0  0  0  0
 11  1  1  0  0  0  0
 13 16  1  0  0  0  0
 13 15  1  0  0  0  0
 14 13  1  0  0  0  0
 16 18  1  0  0  0  0
 17 16  1  0  0  0  0
 19 22  1  0  0  0  0
 19 21  1  0  0  0  0
 19 16  1  0  0  0  0
 20 19  1  0  0  0  0
 22 25  1  0  0  0  0
 22 24  1  0  0  0  0
 23 22  1  0  0  0  0
 25 13  1  0  0  0  0
 25 27  1  0  0  0  0
 26 25  1  0  0  0  0
M  END
>  <SMILES>
[nH]1c(=O)cc[nH]c1=O.C1CCCC1

>  <MoleculeName>
UracilCyclopentane095

>  <Distance Scale>
0.95

>  <Energy Value>
-3.97

$$$$
/home/S66X8/2800_13PeptideMeOH125.xyz
 OpenBabel06262409173D

 18 16  0  0  0  0  0  0  0  0999 V2000
   -0.8493   -0.3395    2.4917 C   0  0  0  0  0  0  0  0  0  0  0  0
    0.1843   -0.0110    2.4162 H   0  0  0  0  0  0  0  0  0  0  0  0
   -0.8825   -1.3421    2.9127 H   0  0  0  0  0  0  0  0  0  0  0  0
   -1.3908    0.3169    3.1684 H   0  0  0  0  0  0  0  0  0  0  0  0
   -1.5640   -0.3533    1.1595 C   0  0  0  0  0  0  0  0  0  0  0  0
   -2.7495   -0.6515    1.0568 O   0  0  0  0  0  0  0  0  0  0  0  0
   -0.8017   -0.0274    0.0883 N   0  0  0  0  0  0  0  0  0  0  0  0
    0.1612    0.2404    0.2187 H   0  0  0  0  0  0  0  0  0  0  0  0
   -1.3853   -0.0024   -1.2341 C   0  0  0  0  0  0  0  0  0  0  0  0
   -1.8916   -0.9428   -1.4401 H   0  0  0  0  0  0  0  0  0  0  0  0
   -2.1200    0.7962   -1.3309 H   0  0  0  0  0  0  0  0  0  0  0  0
   -0.5946    0.1496   -1.9631 H   0  0  0  0  0  0  0  0  0  0  0  0
    2.6621    0.2551    0.5162 O   0  0  0  0  0  0  0  0  0  0  0  0
    3.3830    0.8824    0.6066 H   0  0  0  0  0  0  0  0  0  0  0  0
    3.1812   -1.0503    0.7500 C   0  0  0  0  0  0  0  0  0  0  0  0
    2.3486   -1.7390    0.6445 H   0  0  0  0  0  0  0  0  0  0  0  0
    3.9473   -1.3192    0.0232 H   0  0  0  0  0  0  0  0  0  0  0  0
    3.5893   -1.1517    1.7557 H   0  0  0  0  0  0  0  0  0  0  0  0
  1  3  1  0  0  0  0
  1  4  1  0  0  0  0
  2  1  1  0  0  0  0
  5  1  1  0  0  0  0
  6  5  2  0  0  0  0
  7  8  1  0  0  0  0
  7  5  1  0  0  0  0
  9  7  1  0  0  0  0
 10  9  1  0  0  0  0
 11  9  1  0  0  0  0
 12  9  1  0  0  0  0
 13 14  1  0  0  0  0
 13 15  1  0  0  0  0
 15 18  1  0  0  0  0
 16 15  1  0  0  0  0
 17 15  1  0  0  0  0
M  END
>  <SMILES>
CC(=O)NC.OC

>  <MoleculeName>
PeptideMeOH125

>  <Distance Scale>
1.25

>  <Energy Value>
-4.6

$$$$
/home/S66X8/2976_35NeopentanePentane125.xyz
 OpenBabel06262409173D

 34 32  0  0  0  0  0  0  0  0999 V2000
   -2.5304   -0.4176    0.6813 C   0  0  0  0  0  0  0  0  0  0  0  0
   -2.5599   -0.9828   -0.2502 H   0  0  0  0  0  0  0  0  0  0  0  0
   -2.5540   -1.1339    1.5027 H   0  0  0  0  0  0  0  0  0  0  0  0
   -3.4362    0.1841    0.7368 H   0  0  0  0  0  0  0  0  0  0  0  0
   -1.2762    0.4436    0.7500 C   0  0  0  0  0  0  0  0  0  0  0  0
   -1.2781    1.0252    1.6751 H   0  0  0  0  0  0  0  0  0  0  0  0
   -1.2803    1.1686   -0.0672 H   0  0  0  0  0  0  0  0  0  0  0  0
    0.0022   -0.3807    0.6790 C   0  0  0  0  0  0  0  0  0  0  0  0
    0.0078   -1.1114    1.4938 H   0  0  0  0  0  0  0  0  0  0  0  0
    0.0062   -0.9605   -0.2488 H   0  0  0  0  0  0  0  0  0  0  0  0
    1.2683    0.4624    0.7494 C   0  0  0  0  0  0  0  0  0  0  0  0
    1.2620    1.0443    1.6742 H   0  0  0  0  0  0  0  0  0  0  0  0
    1.2616    1.1871   -0.0680 H   0  0  0  0  0  0  0  0  0  0  0  0
    2.5350   -0.3804    0.6807 C   0  0  0  0  0  0  0  0  0  0  0  0
    2.5724   -0.9457   -0.2505 H   0  0  0  0  0  0  0  0  0  0  0  0
    3.4320    0.2344    0.7356 H   0  0  0  0  0  0  0  0  0  0  0  0
    2.5692   -1.0958    1.5025 H   0  0  0  0  0  0  0  0  0  0  0  0
   -0.0006    0.0863    6.0266 C   0  0  0  0  0  0  0  0  0  0  0  0
    0.0005   -0.0538    7.5464 C   0  0  0  0  0  0  0  0  0  0  0  0
   -0.8866    0.4102    7.9797 H   0  0  0  0  0  0  0  0  0  0  0  0
    0.0097   -1.1046    7.8394 H   0  0  0  0  0  0  0  0  0  0  0  0
    0.8791    0.4258    7.9800 H   0  0  0  0  0  0  0  0  0  0  0  0
   -1.2400   -0.5954    5.4527 C   0  0  0  0  0  0  0  0  0  0  0  0
   -1.2633   -0.5064    4.3659 H   0  0  0  0  0  0  0  0  0  0  0  0
   -1.2521   -1.6566    5.7057 H   0  0  0  0  0  0  0  0  0  0  0  0
   -2.1510   -0.1431    5.8478 H   0  0  0  0  0  0  0  0  0  0  0  0
    1.2520   -0.5712    5.4532 C   0  0  0  0  0  0  0  0  0  0  0  0
    1.2733   -0.4830    4.3662 H   0  0  0  0  0  0  0  0  0  0  0  0
    1.2851   -1.6318    5.7072 H   0  0  0  0  0  0  0  0  0  0  0  0
    2.1538   -0.1006    5.8476 H   0  0  0  0  0  0  0  0  0  0  0  0
   -0.0148    1.5661    5.6520 C   0  0  0  0  0  0  0  0  0  0  0  0
    0.8629    2.0767    6.0510 H   0  0  0  0  0  0  0  0  0  0  0  0
   -0.0154    1.6925    4.5683 H   0  0  0  0  0  0  0  0  0  0  0  0
   -0.9029    2.0594    6.0498 H   0  0  0  0  0  0  0  0  0  0  0  0
  1  4  1  0  0  0  0
  1  5  1  0  0  0  0
  1  3  1  0  0  0  0
  2  1  1  0  0  0  0
  5  6  1  0  0  0  0
  7  5  1  0  0  0  0
  8 11  1  0  0  0  0
  8  5  1  0  0  0  0
  8  9  1  0  0  0  0
 10  8  1  0  0  0  0
 11 12  1  0  0  0  0
 13 11  1  0  0  0  0
 14 16  1  0  0  0  0
 14 11  1  0  0  0  0
 14 17  1  0  0  0  0
 15 14  1  0  0  0  0
 18 19  1  0  0  0  0
 19 21  1  0  0  0  0
 19 20  1  0  0  0  0
 19 22  1  0  0  0  0
 23 25  1  0  0  0  0
 23 26  1  0  0  0  0
 23 18  1  0  0  0  0
 24 23  1  0  0  0  0
 27 29  1  0  0  0  0
 27 30  1  0  0  0  0
 27 18  1  0  0  0  0
 28 27  1  0  0  0  0
 31 18  1  0  0  0  0
 31 34  1  0  0  0  0
 31 32  1  0  0  0  0
 33 31  1  0  0  0  0
M  END
>  <SMILES>
CCCCC.C(C)(C)(C)C

>  <MoleculeName>
NeopentanePentane125

>  <Distance Scale>
1.25

>  <Energy Value>
-1.5

$$$$
/home/S66X8/2934_30BenzeneEthene105.xyz
 OpenBabel06262409173D

 18 17  0  0  0  0  0  0  0  0999 V2000
    0.8355    1.1152    0.0214 C   0  0  0  0  0  0  0  0  0  0  0  0
    1.4843    1.9806    0.0195 H   0  0  0  0  0  0  0  0  0  0  0  0
    1.3833   -0.1661    0.0238 C   0  0  0  0  0  0  0  0  0  0  0  0
    2.4571   -0.2952    0.0228 H   0  0  0  0  0  0  0  0  0  0  0  0
    0.5476   -1.2813    0.0217 C   0  0  0  0  0  0  0  0  0  0  0  0
    0.9729   -2.2758    0.0198 H   0  0  0  0  0  0  0  0  0  0  0  0
   -0.8355   -1.1152    0.0214 C   0  0  0  0  0  0  0  0  0  0  0  0
   -1.4843   -1.9806    0.0195 H   0  0  0  0  0  0  0  0  0  0  0  0
   -1.3833    0.1662    0.0238 C   0  0  0  0  0  0  0  0  0  0  0  0
   -2.4572    0.2952    0.0228 H   0  0  0  0  0  0  0  0  0  0  0  0
   -0.5476    1.2813    0.0217 C   0  0  0  0  0  0  0  0  0  0  0  0
   -0.9729    2.2758    0.0198 H   0  0  0  0  0  0  0  0  0  0  0  0
    0.6558   -0.1168    3.6342 C   0  0  0  0  0  0  0  0  0  0  0  0
    1.0472   -1.1239    3.6297 H   0  0  0  0  0  0  0  0  0  0  0  0
    1.3709    0.6933    3.6297 H   0  0  0  0  0  0  0  0  0  0  0  0
   -0.6558    0.1168    3.6342 C   0  0  0  0  0  0  0  0  0  0  0  0
   -1.3708   -0.6933    3.6297 H   0  0  0  0  0  0  0  0  0  0  0  0
   -1.0472    1.1239    3.6298 H   0  0  0  0  0  0  0  0  0  0  0  0
  1 11  2  0  0  0  0
  1  3  1  0  0  0  0
  2  1  1  0  0  0  0
  4  3  1  0  0  0  0
  5  3  2  0  0  0  0
  6  5  1  0  0  0  0
  7  5  1  0  0  0  0
  7  9  2  0  0  0  0
  8  7  1  0  0  0  0
 10  9  1  0  0  0  0
 11  9  1  0  0  0  0
 12 11  1  0  0  0  0
 13 16  2  0  0  0  0
 14 13  1  0  0  0  0
 15 13  1  0  0  0  0
 17 16  1  0  0  0  0
 18 16  1  0  0  0  0
M  END
>  <SMILES>
c1ccccc1.C=C

>  <MoleculeName>
BenzeneEthene105

>  <Distance Scale>
1.05

>  <Energy Value>
-1.4

$$$$
/home/S66X8/3202_63BenzeneAcOH200.xyz
 OpenBabel06262409173D

 20 19  0  0  0  0  0  0  0  0999 V2000
    0.6068    1.3304    0.3164 C   0  0  0  0  0  0  0  0  0  0  0  0
    1.2465    2.2023    0.3304 H   0  0  0  0  0  0  0  0  0  0  0  0
    1.1181    0.0872    0.6851 C   0  0  0  0  0  0  0  0  0  0  0  0
    2.1501   -0.0039    0.9938 H   0  0  0  0  0  0  0  0  0  0  0  0
    0.2929   -1.0361    0.6691 C   0  0  0  0  0  0  0  0  0  0  0  0
    0.6885   -2.0010    0.9554 H   0  0  0  0  0  0  0  0  0  0  0  0
   -1.0428   -0.9167    0.2882 C   0  0  0  0  0  0  0  0  0  0  0  0
   -1.6827   -1.7885    0.2793 H   0  0  0  0  0  0  0  0  0  0  0  0
   -1.5536    0.3273   -0.0799 C   0  0  0  0  0  0  0  0  0  0  0  0
   -2.5892    0.4203   -0.3773 H   0  0  0  0  0  0  0  0  0  0  0  0
   -0.7280    1.4508   -0.0668 C   0  0  0  0  0  0  0  0  0  0  0  0
   -1.1236    2.4157   -0.3539 H   0  0  0  0  0  0  0  0  0  0  0  0
    0.0803    0.2253    7.0172 C   0  0  0  0  0  0  0  0  0  0  0  0
    1.2758    0.3892    7.0937 O   0  0  0  0  0  0  0  0  0  0  0  0
   -0.4992   -0.9861    7.2166 O   0  0  0  0  0  0  0  0  0  0  0  0
    0.2353   -1.5872    7.4097 H   0  0  0  0  0  0  0  0  0  0  0  0
   -0.9416    1.2692    6.6965 C   0  0  0  0  0  0  0  0  0  0  0  0
   -0.4633    2.2402    6.6497 H   0  0  0  0  0  0  0  0  0  0  0  0
   -1.3944    1.0360    5.7338 H   0  0  0  0  0  0  0  0  0  0  0  0
   -1.7264    1.2637    7.4490 H   0  0  0  0  0  0  0  0  0  0  0  0
  1  2  1  0  0  0  0
  1  3  1  0  0  0  0
  3  4  1  0  0  0  0
  5  3  2  0  0  0  0
  5  6  1  0  0  0  0
  7  5  1  0  0  0  0
  8  7  1  0  0  0  0
  9 11  1  0  0  0  0
  9  7  2  0  0  0  0
 10  9  1  0  0  0  0
 11  1  2  0  0  0  0
 12 11  1  0  0  0  0
 13 14  2  0  0  0  0
 13 15  1  0  0  0  0
 15 16  1  0  0  0  0
 17 13  1  0  0  0  0
 17 20  1  0  0  0  0
 18 17  1  0  0  0  0
 19 17  1  0  0  0  0
M  END
>  <SMILES>
c1ccccc1.C(=O)(O)C

>  <MoleculeName>
BenzeneAcOH200

>  <Distance Scale>
2.0

>  <Energy Value>
-0.26

$$$$
/home/S66X8/2950_32UracilEthyne105.xyz
 OpenBabel06262409173D

 16 15  0  0  0  0  0  0  0  0999 V2000
   -0.0555   -0.9480    0.0100 N   0  0  0  0  0  0  0  0  0  0  0  0
   -0.0573   -1.9577    0.0551 H   0  0  0  0  0  0  0  0  0  0  0  0
   -1.3140   -0.3351   -0.0646 C   0  0  0  0  0  0  0  0  0  0  0  0
   -2.3289   -1.0079   -0.1231 O   0  0  0  0  0  0  0  0  0  0  0  0
   -1.2484    1.1161   -0.0665 C   0  0  0  0  0  0  0  0  0  0  0  0
   -2.1643    1.6753   -0.1471 H   0  0  0  0  0  0  0  0  0  0  0  0
   -0.0531    1.7314    0.0342 C   0  0  0  0  0  0  0  0  0  0  0  0
    0.0481    2.8064    0.0434 H   0  0  0  0  0  0  0  0  0  0  0  0
    1.1159    1.0276    0.1352 N   0  0  0  0  0  0  0  0  0  0  0  0
    1.9967    1.4973    0.2616 H   0  0  0  0  0  0  0  0  0  0  0  0
    1.1753   -0.3538    0.1762 C   0  0  0  0  0  0  0  0  0  0  0  0
    2.2146   -0.9665    0.3352 O   0  0  0  0  0  0  0  0  0  0  0  0
    0.7165   -0.1711    3.4381 C   0  0  0  0  0  0  0  0  0  0  0  0
    1.7123   -0.5251    3.3238 H   0  0  0  0  0  0  0  0  0  0  0  0
   -0.4281    0.2154    3.5443 C   0  0  0  0  0  0  0  0  0  0  0  0
   -1.4330    0.5441    3.6446 H   0  0  0  0  0  0  0  0  0  0  0  0
  1  2  1  0  0  0  0
  1 11  1  0  0  0  0
  3  1  1  0  0  0  0
  4  3  2  0  0  0  0
  5  3  1  0  0  0  0
  5  7  2  0  0  0  0
  6  5  1  0  0  0  0
  7  8  1  0  0  0  0
  7  9  1  0  0  0  0
  9 11  1  0  0  0  0
  9 10  1  0  0  0  0
 11 12  2  0  0  0  0
 13 15  3  0  0  0  0
 14 13  1  0  0  0  0
 15 16  1  0  0  0  0
M  END
>  <SMILES>
[nH]1c(=O)cc[nH]c1=O.C#C

>  <MoleculeName>
UracilEthyne105

>  <Distance Scale>
1.05

>  <Energy Value>
-3.59

$$$$
/home/S66X8/3104_51EthyneEthyneTS125.xyz
 OpenBabel06262409173D

  8  6  0  0  0  0  0  0  0  0999 V2000
   -0.6017   -0.0286    0.3849 C   0  0  0  0  0  0  0  0  0  0  0  0
   -1.6637   -0.0285    0.3790 H   0  0  0  0  0  0  0  0  0  0  0  0
    0.6101   -0.0287    0.3882 C   0  0  0  0  0  0  0  0  0  0  0  0
    1.6721   -0.0288    0.3880 H   0  0  0  0  0  0  0  0  0  0  0  0
   -0.0096    0.1261    4.8721 C   0  0  0  0  0  0  0  0  0  0  0  0
   -0.0062    0.0924    3.8088 H   0  0  0  0  0  0  0  0  0  0  0  0
   -0.0135    0.1644    6.0835 C   0  0  0  0  0  0  0  0  0  0  0  0
   -0.0168    0.1978    7.1444 H   0  0  0  0  0  0  0  0  0  0  0  0
  1  3  3  0  0  0  0
  2  1  1  0  0  0  0
  4  3  1  0  0  0  0
  5  7  3  0  0  0  0
  6  5  1  0  0  0  0
  7  8  1  0  0  0  0
M  END
>  <SMILES>
C#C.C#C

>  <MoleculeName>
EthyneEthyneTS125

>  <Distance Scale>
1.25

>  <Energy Value>
-0.93

$$$$
/home/S66X8/2894_25PyridinePyridinepipi105.xyz
 OpenBabel06262409173D

 22 22  0  0  0  0  0  0  0  0999 V2000
    1.5725    0.2545   -0.2565 N   0  0  0  0  0  0  0  0  0  0  0  0
    0.9694   -0.9032    0.0445 C   0  0  0  0  0  0  0  0  0  0  0  0
    1.6136   -1.7722    0.1023 H   0  0  0  0  0  0  0  0  0  0  0  0
   -0.3982   -1.0288    0.2810 C   0  0  0  0  0  0  0  0  0  0  0  0
   -0.8184   -1.9917    0.5336 H   0  0  0  0  0  0  0  0  0  0  0  0
   -1.1958    0.1066    0.1954 C   0  0  0  0  0  0  0  0  0  0  0  0
   -2.2607    0.0495    0.3734 H   0  0  0  0  0  0  0  0  0  0  0  0
   -0.5871    1.3174   -0.1201 C   0  0  0  0  0  0  0  0  0  0  0  0
   -1.1618    2.2295   -0.2005 H   0  0  0  0  0  0  0  0  0  0  0  0
    0.7885    1.3397   -0.3322 C   0  0  0  0  0  0  0  0  0  0  0  0
    1.2884    2.2688   -0.5785 H   0  0  0  0  0  0  0  0  0  0  0  0
   -0.5426   -1.5234    3.9220 N   0  0  0  0  0  0  0  0  0  0  0  0
   -1.4751   -0.5628    3.9959 C   0  0  0  0  0  0  0  0  0  0  0  0
   -2.4779   -0.8938    4.2381 H   0  0  0  0  0  0  0  0  0  0  0  0
   -1.2131    0.7883    3.7865 C   0  0  0  0  0  0  0  0  0  0  0  0
   -2.0117    1.5128    3.8648 H   0  0  0  0  0  0  0  0  0  0  0  0
    0.0863    1.1775    3.4762 C   0  0  0  0  0  0  0  0  0  0  0  0
    0.3283    2.2165    3.3004 H   0  0  0  0  0  0  0  0  0  0  0  0
    1.0659    0.1946    3.3929 C   0  0  0  0  0  0  0  0  0  0  0  0
    2.0882    0.4414    3.1445 H   0  0  0  0  0  0  0  0  0  0  0  0
    0.7034   -1.1305    3.6261 C   0  0  0  0  0  0  0  0  0  0  0  0
    1.4472   -1.9161    3.5696 H   0  0  0  0  0  0  0  0  0  0  0  0
  1  2  1  0  0  0  0
  2  3  1  0  0  0  0
  2  4  2  0  0  0  0
  4  5  1  0  0  0  0
  6  4  1  0  0  0  0
  6  7  1  0  0  0  0
  8  6  2  0  0  0  0
  9  8  1  0  0  0  0
 10  1  2  0  0  0  0
 10  8  1  0  0  0  0
 11 10  1  0  0  0  0
 12 13  1  0  0  0  0
 13 14  1  0  0  0  0
 15 16  1  0  0  0  0
 15 13  2  0  0  0  0
 17 15  1  0  0  0  0
 18 17  1  0  0  0  0
 19 17  2  0  0  0  0
 19 21  1  0  0  0  0
 20 19  1  0  0  0  0
 21 12  2  0  0  0  0
 22 21  1  0  0  0  0
M  END
>  <SMILES>
n1ccccc1.n1ccccc1

>  <MoleculeName>
PyridinePyridinepipi105

>  <Distance Scale>
1.05

>  <Energy Value>
-3.86

$$$$
/home/S66X8/3066_46PeptidePentane200.xyz
 OpenBabel06262409173D

 29 27  0  0  0  0  0  0  0  0999 V2000
    1.3722    1.0125    0.9708 C   0  0  0  0  0  0  0  0  0  0  0  0
    0.9522    2.0140    1.0331 H   0  0  0  0  0  0  0  0  0  0  0  0
    1.9474    0.9265    0.0507 H   0  0  0  0  0  0  0  0  0  0  0  0
    2.0517    0.8518    1.8030 H   0  0  0  0  0  0  0  0  0  0  0  0
    0.3267   -0.0776    0.9882 C   0  0  0  0  0  0  0  0  0  0  0  0
    0.6188   -1.2525    1.1713 O   0  0  0  0  0  0  0  0  0  0  0  0
   -0.9500    0.3449    0.7739 N   0  0  0  0  0  0  0  0  0  0  0  0
   -1.1047    1.3220    0.6061 H   0  0  0  0  0  0  0  0  0  0  0  0
   -2.0599   -0.5774    0.6802 C   0  0  0  0  0  0  0  0  0  0  0  0
   -1.6694   -1.5668    0.8972 H   0  0  0  0  0  0  0  0  0  0  0  0
   -2.8346   -0.3314    1.4037 H   0  0  0  0  0  0  0  0  0  0  0  0
   -2.4910   -0.5789   -0.3199 H   0  0  0  0  0  0  0  0  0  0  0  0
    2.8975    0.6285    7.6279 C   0  0  0  0  0  0  0  0  0  0  0  0
    3.0144    1.3829    6.8492 H   0  0  0  0  0  0  0  0  0  0  0  0
    2.8114    1.1534    8.5796 H   0  0  0  0  0  0  0  0  0  0  0  0
    3.8096    0.0343    7.6547 H   0  0  0  0  0  0  0  0  0  0  0  0
    1.6692   -0.2349    7.3703 C   0  0  0  0  0  0  0  0  0  0  0  0
    1.5747   -0.9803    8.1634 H   0  0  0  0  0  0  0  0  0  0  0  0
    1.7857   -0.7883    6.4365 H   0  0  0  0  0  0  0  0  0  0  0  0
    0.3867    0.5838    7.3050 C   0  0  0  0  0  0  0  0  0  0  0  0
    0.2751    1.1615    8.2281 H   0  0  0  0  0  0  0  0  0  0  0  0
    0.4659    1.3166    6.4954 H   0  0  0  0  0  0  0  0  0  0  0  0
   -0.8576   -0.2666    7.0882 C   0  0  0  0  0  0  0  0  0  0  0  0
   -0.9484   -0.9811    7.9096 H   0  0  0  0  0  0  0  0  0  0  0  0
   -0.7298   -0.8555    6.1780 H   0  0  0  0  0  0  0  0  0  0  0  0
   -2.1245    0.5737    6.9981 C   0  0  0  0  0  0  0  0  0  0  0  0
   -2.0576    1.2808    6.1703 H   0  0  0  0  0  0  0  0  0  0  0  0
   -3.0098   -0.0423    6.8442 H   0  0  0  0  0  0  0  0  0  0  0  0
   -2.2748    1.1499    7.9113 H   0  0  0  0  0  0  0  0  0  0  0  0
  1  5  1  0  0  0  0
  1  2  1  0  0  0  0
  1  4  1  0  0  0  0
  3  1  1  0  0  0  0
  5  6  2  0  0  0  0
  7  5  1  0  0  0  0
  8  7  1  0  0  0  0
  9  7  1  0  0  0  0
  9 10  1  0  0  0  0
  9 11  1  0  0  0  0
 12  9  1  0  0  0  0
 13 16  1  0  0  0  0
 13 15  1  0  0  0  0
 14 13  1  0  0  0  0
 17 13  1  0  0  0  0
 17 18  1  0  0  0  0
 19 17  1  0  0  0  0
 20 17  1  0  0  0  0
 20 21  1  0  0  0  0
 22 20  1  0  0  0  0
 23 20  1  0  0  0  0
 23 24  1  0  0  0  0
 25 23  1  0  0  0  0
 26 23  1  0  0  0  0
 26 29  1  0  0  0  0
 27 26  1  0  0  0  0
 28 26  1  0  0  0  0
M  END
>  <SMILES>
CC(=O)NC.CCCCC

>  <MoleculeName>
PeptidePentane200

>  <Distance Scale>
2.0

>  <Energy Value>
-0.29

$$$$
/home/S66X8/3222_66MeNH2Pyridine105.xyz
 OpenBabel06262409173D

 18 17  0  0  0  0  0  0  0  0999 V2000
   -0.5411    0.0296   -0.2090 N   0  0  0  0  0  0  0  0  0  0  0  0
    0.0556   -0.7861   -0.1303 H   0  0  0  0  0  0  0  0  0  0  0  0
   -1.4697   -0.2747    0.0531 H   0  0  0  0  0  0  0  0  0  0  0  0
   -0.0788    1.0424    0.7385 C   0  0  0  0  0  0  0  0  0  0  0  0
   -0.7202    1.9194    0.6720 H   0  0  0  0  0  0  0  0  0  0  0  0
   -0.0508    0.7238    1.7855 H   0  0  0  0  0  0  0  0  0  0  0  0
    0.9264    1.3566    0.4620 H   0  0  0  0  0  0  0  0  0  0  0  0
    2.4739   -1.2840    0.0394 N   0  0  0  0  0  0  0  0  0  0  0  0
    2.8123   -0.4716   -0.9723 C   0  0  0  0  0  0  0  0  0  0  0  0
    2.2697   -0.6162   -1.8977 H   0  0  0  0  0  0  0  0  0  0  0  0
    3.7837    0.5205   -0.8719 C   0  0  0  0  0  0  0  0  0  0  0  0
    4.0085    1.1448   -1.7248 H   0  0  0  0  0  0  0  0  0  0  0  0
    4.4445    0.6900    0.3403 C   0  0  0  0  0  0  0  0  0  0  0  0
    5.2024    1.4523    0.4567 H   0  0  0  0  0  0  0  0  0  0  0  0
    4.1044   -0.1449    1.3995 C   0  0  0  0  0  0  0  0  0  0  0  0
    4.5870   -0.0545    2.3622 H   0  0  0  0  0  0  0  0  0  0  0  0
    3.1206   -1.1097    1.2003 C   0  0  0  0  0  0  0  0  0  0  0  0
    2.8345   -1.7735    2.0069 H   0  0  0  0  0  0  0  0  0  0  0  0
  1  2  1  0  0  0  0
  1  3  1  0  0  0  0
  1  4  1  0  0  0  0
  4  6  1  0  0  0  0
  5  4  1  0  0  0  0
  7  4  1  0  0  0  0
  8 17  1  0  0  0  0
  9 11  1  0  0  0  0
  9  8  2  0  0  0  0
 10  9  1  0  0  0  0
 11 13  2  0  0  0  0
 12 11  1  0  0  0  0
 13 14  1  0  0  0  0
 13 15  1  0  0  0  0
 15 16  1  0  0  0  0
 17 15  2  0  0  0  0
 17 18  1  0  0  0  0
M  END
>  <SMILES>
NC.n1ccccc1

>  <MoleculeName>
MeNH2Pyridine105

>  <Distance Scale>
1.05

>  <Energy Value>
-3.85

$$$$
/home/S66X8/2741_06MeOHMeNH2100.xyz
 OpenBabel06262409173D

 13 11  0  0  0  0  0  0  0  0999 V2000
   -0.7069    0.0458    0.0064 O   0  0  0  0  0  0  0  0  0  0  0  0
    0.2656    0.0717    0.0013 H   0  0  0  0  0  0  0  0  0  0  0  0
   -1.0767   -1.3139    0.0016 C   0  0  0  0  0  0  0  0  0  0  0  0
   -2.1629   -1.3632    0.0059 H   0  0  0  0  0  0  0  0  0  0  0  0
   -0.7234   -1.8447   -0.8877 H   0  0  0  0  0  0  0  0  0  0  0  0
   -0.7161   -1.8528    0.8831 H   0  0  0  0  0  0  0  0  0  0  0  0
    2.2319   -0.0381   -0.0034 N   0  0  0  0  0  0  0  0  0  0  0  0
    2.6025    0.4696    0.7897 H   0  0  0  0  0  0  0  0  0  0  0  0
    2.6027    0.4262   -0.8227 H   0  0  0  0  0  0  0  0  0  0  0  0
    2.7097   -1.4242    0.0340 C   0  0  0  0  0  0  0  0  0  0  0  0
    2.3178   -1.9582   -0.8281 H   0  0  0  0  0  0  0  0  0  0  0  0
    3.7964   -1.5309    0.0371 H   0  0  0  0  0  0  0  0  0  0  0  0
    2.3175   -1.9109    0.9237 H   0  0  0  0  0  0  0  0  0  0  0  0
  2  1  1  0  0  0  0
  3  4  1  0  0  0  0
  3  1  1  0  0  0  0
  3  6  1  0  0  0  0
  5  3  1  0  0  0  0
  7 10  1  0  0  0  0
  7  8  1  0  0  0  0
  9  7  1  0  0  0  0
 10 12  1  0  0  0  0
 10 13  1  0  0  0  0
 11 10  1  0  0  0  0
M  END
>  <SMILES>
OC.NC

>  <MoleculeName>
MeOHMeNH2100

>  <Distance Scale>
1.0

>  <Energy Value>
-7.54

$$$$
/home/S66X8/2898_25PyridinePyridinepipi200.xyz
 OpenBabel06262409173D

 22 22  0  0  0  0  0  0  0  0999 V2000
    1.5725    0.2545   -0.2565 N   0  0  0  0  0  0  0  0  0  0  0  0
    0.9694   -0.9032    0.0445 C   0  0  0  0  0  0  0  0  0  0  0  0
    1.6136   -1.7722    0.1023 H   0  0  0  0  0  0  0  0  0  0  0  0
   -0.3982   -1.0288    0.2810 C   0  0  0  0  0  0  0  0  0  0  0  0
   -0.8184   -1.9917    0.5336 H   0  0  0  0  0  0  0  0  0  0  0  0
   -1.1958    0.1066    0.1954 C   0  0  0  0  0  0  0  0  0  0  0  0
   -2.2607    0.0495    0.3734 H   0  0  0  0  0  0  0  0  0  0  0  0
   -0.5871    1.3174   -0.1201 C   0  0  0  0  0  0  0  0  0  0  0  0
   -1.1618    2.2295   -0.2005 H   0  0  0  0  0  0  0  0  0  0  0  0
    0.7885    1.3397   -0.3322 C   0  0  0  0  0  0  0  0  0  0  0  0
    1.2884    2.2688   -0.5785 H   0  0  0  0  0  0  0  0  0  0  0  0
   -0.9231   -1.8463    7.2432 N   0  0  0  0  0  0  0  0  0  0  0  0
   -1.8556   -0.8857    7.3171 C   0  0  0  0  0  0  0  0  0  0  0  0
   -2.8584   -1.2166    7.5593 H   0  0  0  0  0  0  0  0  0  0  0  0
   -1.5936    0.4654    7.1077 C   0  0  0  0  0  0  0  0  0  0  0  0
   -2.3922    1.1899    7.1860 H   0  0  0  0  0  0  0  0  0  0  0  0
   -0.2942    0.8547    6.7974 C   0  0  0  0  0  0  0  0  0  0  0  0
   -0.0522    1.8937    6.6215 H   0  0  0  0  0  0  0  0  0  0  0  0
    0.6854   -0.1282    6.7141 C   0  0  0  0  0  0  0  0  0  0  0  0
    1.7077    0.1185    6.4656 H   0  0  0  0  0  0  0  0  0  0  0  0
    0.3229   -1.4534    6.9472 C   0  0  0  0  0  0  0  0  0  0  0  0
    1.0668   -2.2389    6.8908 H   0  0  0  0  0  0  0  0  0  0  0  0
  1  2  1  0  0  0  0
  2  3  1  0  0  0  0
  2  4  2  0  0  0  0
  4  5  1  0  0  0  0
  6  4  1  0  0  0  0
  6  7  1  0  0  0  0
  8  6  2  0  0  0  0
  9  8  1  0  0  0  0
 10  1  2  0  0  0  0
 10  8  1  0  0  0  0
 11 10  1  0  0  0  0
 12 13  1  0  0  0  0
 13 14  1  0  0  0  0
 15 16  1  0  0  0  0
 15 13  2  0  0  0  0
 17 15  1  0  0  0  0
 18 17  1  0  0  0  0
 19 17  2  0  0  0  0
 19 21  1  0  0  0  0
 20 19  1  0  0  0  0
 21 12  2  0  0  0  0
 22 21  1  0  0  0  0
M  END
>  <SMILES>
n1ccccc1.n1ccccc1

>  <MoleculeName>
PyridinePyridinepipi200

>  <Distance Scale>
2.0

>  <Energy Value>
-0.24

$$$$
/home/S66X8/2900_26UracilUracilpipi095.xyz
 OpenBabel06262409173D

 24 24  0  0  0  0  0  0  0  0999 V2000
    1.3769    0.8397    0.7346 N   0  0  0  0  0  0  0  0  0  0  0  0
    1.0518    1.3862    1.5234 H   0  0  0  0  0  0  0  0  0  0  0  0
    1.3090    1.4575   -0.5207 C   0  0  0  0  0  0  0  0  0  0  0  0
    0.9206    2.6111   -0.6260 O   0  0  0  0  0  0  0  0  0  0  0  0
    2.0114   -1.2132   -0.0981 N   0  0  0  0  0  0  0  0  0  0  0  0
    1.7273    0.9908   -2.6120 H   0  0  0  0  0  0  0  0  0  0  0  0
    2.0257   -0.6972   -1.3644 C   0  0  0  0  0  0  0  0  0  0  0  0
    2.2975   -1.3911   -2.1456 H   0  0  0  0  0  0  0  0  0  0  0  0
    1.7145    0.5919   -1.6125 C   0  0  0  0  0  0  0  0  0  0  0  0
    2.1295   -2.2015    0.0568 H   0  0  0  0  0  0  0  0  0  0  0  0
    1.6459   -0.4852    1.0187 C   0  0  0  0  0  0  0  0  0  0  0  0
    1.5611   -0.9718    2.1298 O   0  0  0  0  0  0  0  0  0  0  0  0
   -1.2396   -0.8160    0.7346 N   0  0  0  0  0  0  0  0  0  0  0  0
   -0.9145   -1.3625    1.5234 H   0  0  0  0  0  0  0  0  0  0  0  0
   -1.1717   -1.4338   -0.5207 C   0  0  0  0  0  0  0  0  0  0  0  0
   -0.7833   -2.5874   -0.6260 O   0  0  0  0  0  0  0  0  0  0  0  0
   -1.8741    1.2369   -0.0981 N   0  0  0  0  0  0  0  0  0  0  0  0
   -1.5900   -0.9671   -2.6120 H   0  0  0  0  0  0  0  0  0  0  0  0
   -1.8884    0.7209   -1.3644 C   0  0  0  0  0  0  0  0  0  0  0  0
   -2.1602    1.4148   -2.1456 H   0  0  0  0  0  0  0  0  0  0  0  0
   -1.5772   -0.5682   -1.6125 C   0  0  0  0  0  0  0  0  0  0  0  0
   -1.9921    2.2252    0.0568 H   0  0  0  0  0  0  0  0  0  0  0  0
   -1.5086    0.5089    1.0187 C   0  0  0  0  0  0  0  0  0  0  0  0
   -1.4238    0.9955    2.1298 O   0  0  0  0  0  0  0  0  0  0  0  0
  1 11  1  0  0  0  0
  1  2  1  0  0  0  0
  3  1  1  0  0  0  0
  4  3  2  0  0  0  0
  5 10  1  0  0  0  0
  5 11  1  0  0  0  0
  6  9  1  0  0  0  0
  7  5  1  0  0  0  0
  8  7  1  0  0  0  0
  9  7  2  0  0  0  0
  9  3  1  0  0  0  0
 11 12  2  0  0  0  0
 13 23  1  0  0  0  0
 13 14  1  0  0  0  0
 15 13  1  0  0  0  0
 16 15  2  0  0  0  0
 17 22  1  0  0  0  0
 17 23  1  0  0  0  0
 18 21  1  0  0  0  0
 19 17  1  0  0  0  0
 20 19  1  0  0  0  0
 21 19  2  0  0  0  0
 21 15  1  0  0  0  0
 23 24  2  0  0  0  0
M  END
>  <SMILES>
[nH]1c(=O)cc[nH]c1=O.[nH]1c(=O)cc[nH]c1=O

>  <MoleculeName>
UracilUracilpipi095

>  <Distance Scale>
0.95

>  <Energy Value>
-9.5

$$$$
/home/S66X8/2896_25PyridinePyridinepipi125.xyz
 OpenBabel06262409173D

 22 22  0  0  0  0  0  0  0  0999 V2000
    1.5725    0.2545   -0.2565 N   0  0  0  0  0  0  0  0  0  0  0  0
    0.9694   -0.9032    0.0445 C   0  0  0  0  0  0  0  0  0  0  0  0
    1.6136   -1.7722    0.1023 H   0  0  0  0  0  0  0  0  0  0  0  0
   -0.3982   -1.0288    0.2810 C   0  0  0  0  0  0  0  0  0  0  0  0
   -0.8184   -1.9917    0.5336 H   0  0  0  0  0  0  0  0  0  0  0  0
   -1.1958    0.1066    0.1954 C   0  0  0  0  0  0  0  0  0  0  0  0
   -2.2607    0.0495    0.3734 H   0  0  0  0  0  0  0  0  0  0  0  0
   -0.5871    1.3174   -0.1201 C   0  0  0  0  0  0  0  0  0  0  0  0
   -1.1618    2.2295   -0.2005 H   0  0  0  0  0  0  0  0  0  0  0  0
    0.7885    1.3397   -0.3322 C   0  0  0  0  0  0  0  0  0  0  0  0
    1.2884    2.2688   -0.5785 H   0  0  0  0  0  0  0  0  0  0  0  0
   -0.6197   -1.5888    4.5942 N   0  0  0  0  0  0  0  0  0  0  0  0
   -1.5521   -0.6281    4.6681 C   0  0  0  0  0  0  0  0  0  0  0  0
   -2.5549   -0.9591    4.9103 H   0  0  0  0  0  0  0  0  0  0  0  0
   -1.2901    0.7229    4.4587 C   0  0  0  0  0  0  0  0  0  0  0  0
   -2.0887    1.4474    4.5370 H   0  0  0  0  0  0  0  0  0  0  0  0
    0.0093    1.1122    4.1484 C   0  0  0  0  0  0  0  0  0  0  0  0
    0.2513    2.1512    3.9726 H   0  0  0  0  0  0  0  0  0  0  0  0
    0.9889    0.1293    4.0651 C   0  0  0  0  0  0  0  0  0  0  0  0
    2.0112    0.3760    3.8166 H   0  0  0  0  0  0  0  0  0  0  0  0
    0.6264   -1.1959    4.2983 C   0  0  0  0  0  0  0  0  0  0  0  0
    1.3702   -1.9814    4.2418 H   0  0  0  0  0  0  0  0  0  0  0  0
  1  2  1  0  0  0  0
  2  3  1  0  0  0  0
  2  4  2  0  0  0  0
  4  5  1  0  0  0  0
  6  4  1  0  0  0  0
  6  7  1  0  0  0  0
  8  6  2  0  0  0  0
  9  8  1  0  0  0  0
 10  1  2  0  0  0  0
 10  8  1  0  0  0  0
 11 10  1  0  0  0  0
 12 13  1  0  0  0  0
 13 14  1  0  0  0  0
 15 16  1  0  0  0  0
 15 13  2  0  0  0  0
 17 15  1  0  0  0  0
 18 17  1  0  0  0  0
 19 17  2  0  0  0  0
 19 21  1  0  0  0  0
 20 19  1  0  0  0  0
 21 12  2  0  0  0  0
 22 21  1  0  0  0  0
M  END
>  <SMILES>
n1ccccc1.n1ccccc1

>  <MoleculeName>
PyridinePyridinepipi125

>  <Distance Scale>
1.25

>  <Energy Value>
-2.36

$$$$
/home/S66X8/2717_03WaterMeNH2100.xyz
 OpenBabel06262409173D

 10  8  0  0  0  0  0  0  0  0999 V2000
   -0.6875   -0.1117   -0.0196 O   0  0  0  0  0  0  0  0  0  0  0  0
   -1.0461    0.7759    0.0127 H   0  0  0  0  0  0  0  0  0  0  0  0
    0.2740    0.0259   -0.0035 H   0  0  0  0  0  0  0  0  0  0  0  0
    2.2844    0.1052    0.0061 N   0  0  0  0  0  0  0  0  0  0  0  0
    2.5798   -0.4475   -0.7887 H   0  0  0  0  0  0  0  0  0  0  0  0
    2.5945   -0.4055    0.8230 H   0  0  0  0  0  0  0  0  0  0  0  0
    2.9438    1.4135   -0.0341 C   0  0  0  0  0  0  0  0  0  0  0  0
    2.6332    1.9953    0.8304 H   0  0  0  0  0  0  0  0  0  0  0  0
    4.0351    1.3742   -0.0431 H   0  0  0  0  0  0  0  0  0  0  0  0
    2.6170    1.9495   -0.9220 H   0  0  0  0  0  0  0  0  0  0  0  0
  1  3  1  0  0  0  0
  1  2  1  0  0  0  0
  4  6  1  0  0  0  0
  5  4  1  0  0  0  0
  7  4  1  0  0  0  0
  7  8  1  0  0  0  0
  9  7  1  0  0  0  0
 10  7  1  0  0  0  0
M  END
>  <SMILES>
O.NC

>  <MoleculeName>
WaterMeNH2100

>  <Distance Scale>
1.0

>  <Energy Value>
-6.88

$$$$
/home/S66X8/2990_37CyclopentaneNeopentane105.xyz
 OpenBabel06262409173D

 32 31  0  0  0  0  0  0  0  0999 V2000
    0.7999   -1.0221    0.6877 C   0  0  0  0  0  0  0  0  0  0  0  0
    0.8536   -1.1221   -0.3980 H   0  0  0  0  0  0  0  0  0  0  0  0
    1.4914   -1.7442    1.1197 H   0  0  0  0  0  0  0  0  0  0  0  0
    1.1169    0.4250    1.0997 C   0  0  0  0  0  0  0  0  0  0  0  0
    1.8381    0.8901    0.4305 H   0  0  0  0  0  0  0  0  0  0  0  0
    1.5556    0.4398    2.0971 H   0  0  0  0  0  0  0  0  0  0  0  0
   -0.2446    1.1657    1.1030 C   0  0  0  0  0  0  0  0  0  0  0  0
   -0.2581    2.0009    0.4053 H   0  0  0  0  0  0  0  0  0  0  0  0
   -0.4488    1.5770    2.0910 H   0  0  0  0  0  0  0  0  0  0  0  0
   -1.2987    0.1038    0.7393 C   0  0  0  0  0  0  0  0  0  0  0  0
   -1.4736    0.1052   -0.3380 H   0  0  0  0  0  0  0  0  0  0  0  0
   -2.2567    0.2780    1.2272 H   0  0  0  0  0  0  0  0  0  0  0  0
   -0.6469   -1.2201    1.1363 C   0  0  0  0  0  0  0  0  0  0  0  0
   -1.1244   -2.0876    0.6830 H   0  0  0  0  0  0  0  0  0  0  0  0
   -0.6860   -1.3453    2.2202 H   0  0  0  0  0  0  0  0  0  0  0  0
    0.0533    0.1009    5.7701 C   0  0  0  0  0  0  0  0  0  0  0  0
   -0.0431   -0.0512    7.2858 C   0  0  0  0  0  0  0  0  0  0  0  0
    0.9495   -0.0667    7.7381 H   0  0  0  0  0  0  0  0  0  0  0  0
   -0.6020    0.7767    7.7242 H   0  0  0  0  0  0  0  0  0  0  0  0
   -0.5502   -0.9799    7.5511 H   0  0  0  0  0  0  0  0  0  0  0  0
    0.7673    1.4078    5.4345 C   0  0  0  0  0  0  0  0  0  0  0  0
    0.8489    1.5413    4.3548 H   0  0  0  0  0  0  0  0  0  0  0  0
    0.2239    2.2625    5.8400 H   0  0  0  0  0  0  0  0  0  0  0  0
    1.7749    1.4185    5.8528 H   0  0  0  0  0  0  0  0  0  0  0  0
   -1.3517    0.1207    5.1728 C   0  0  0  0  0  0  0  0  0  0  0  0
   -1.3148    0.2379    4.0890 H   0  0  0  0  0  0  0  0  0  0  0  0
   -1.9340    0.9481    5.5812 H   0  0  0  0  0  0  0  0  0  0  0  0
   -1.8816   -0.8071    5.3942 H   0  0  0  0  0  0  0  0  0  0  0  0
    0.8412   -1.0726    5.1928 C   0  0  0  0  0  0  0  0  0  0  0  0
    0.3460   -2.0196    5.4130 H   0  0  0  0  0  0  0  0  0  0  0  0
    0.9360   -0.9854    4.1097 H   0  0  0  0  0  0  0  0  0  0  0  0
    1.8459   -1.1100    5.6166 H   0  0  0  0  0  0  0  0  0  0  0  0
  1  4  1  0  0  0  0
  1  3  1  0  0  0  0
  1 13  1  0  0  0  0
  2  1  1  0  0  0  0
  4  7  1  0  0  0  0
  4  6  1  0  0  0  0
  5  4  1  0  0  0  0
  7  9  1  0  0  0  0
  8  7  1  0  0  0  0
 10  7  1  0  0  0  0
 10 13  1  0  0  0  0
 10 12  1  0  0  0  0
 11 10  1  0  0  0  0
 13 15  1  0  0  0  0
 14 13  1  0  0  0  0
 16 17  1  0  0  0  0
 17 20  1  0  0  0  0
 17 19  1  0  0  0  0
 17 18  1  0  0  0  0
 21 16  1  0  0  0  0
 21 23  1  0  0  0  0
 21 24  1  0  0  0  0
 22 21  1  0  0  0  0
 25 28  1  0  0  0  0
 25 27  1  0  0  0  0
 25 16  1  0  0  0  0
 26 25  1  0  0  0  0
 29 30  1  0  0  0  0
 29 32  1  0  0  0  0
 29 16  1  0  0  0  0
 31 29  1  0  0  0  0
M  END
>  <SMILES>
C1CCCC1.C(C)(C)(C)C

>  <MoleculeName>
CyclopentaneNeopentane105

>  <Distance Scale>
1.05

>  <Energy Value>
-2.33

$$$$
/home/S66X8/3041_43UracilNeopentane150.xyz
 OpenBabel06262409173D

 29 28  0  0  0  0  0  0  0  0999 V2000
    0.6261   -0.8509    0.8059 N   0  0  0  0  0  0  0  0  0  0  0  0
    0.4092   -1.8115    1.0344 H   0  0  0  0  0  0  0  0  0  0  0  0
   -0.4325   -0.0873    0.2947 C   0  0  0  0  0  0  0  0  0  0  0  0
   -1.5308   -0.5884    0.1236 O   0  0  0  0  0  0  0  0  0  0  0  0
   -0.0669    1.2913    0.0196 C   0  0  0  0  0  0  0  0  0  0  0  0
   -0.8097    1.9518   -0.3928 H   0  0  0  0  0  0  0  0  0  0  0  0
    1.1835    1.7179    0.2905 C   0  0  0  0  0  0  0  0  0  0  0  0
    1.5019    2.7339    0.1098 H   0  0  0  0  0  0  0  0  0  0  0  0
    2.1341    0.8866    0.8191 N   0  0  0  0  0  0  0  0  0  0  0  0
    3.0553    1.2239    1.0434 H   0  0  0  0  0  0  0  0  0  0  0  0
    1.9028   -0.4432    1.1283 C   0  0  0  0  0  0  0  0  0  0  0  0
    2.7438   -1.1639    1.6286 O   0  0  0  0  0  0  0  0  0  0  0  0
   -1.1390   -0.0602    6.1750 C   0  0  0  0  0  0  0  0  0  0  0  0
   -2.4558    0.6810    6.3898 C   0  0  0  0  0  0  0  0  0  0  0  0
   -3.1628    0.0628    6.9447 H   0  0  0  0  0  0  0  0  0  0  0  0
   -2.2963    1.6012    6.9540 H   0  0  0  0  0  0  0  0  0  0  0  0
   -2.9135    0.9425    5.4347 H   0  0  0  0  0  0  0  0  0  0  0  0
   -0.5236   -0.4137    7.5262 C   0  0  0  0  0  0  0  0  0  0  0  0
    0.4196   -0.9461    7.3955 H   0  0  0  0  0  0  0  0  0  0  0  0
   -0.3266    0.4861    8.1110 H   0  0  0  0  0  0  0  0  0  0  0  0
   -1.1949   -1.0514    8.1030 H   0  0  0  0  0  0  0  0  0  0  0  0
   -0.1739    0.8332    5.3992 C   0  0  0  0  0  0  0  0  0  0  0  0
    0.7747    0.3206    5.2288 H   0  0  0  0  0  0  0  0  0  0  0  0
    0.0314    1.7514    5.9526 H   0  0  0  0  0  0  0  0  0  0  0  0
   -0.5963    1.1117    4.4317 H   0  0  0  0  0  0  0  0  0  0  0  0
   -1.4003   -1.3403    5.3846 C   0  0  0  0  0  0  0  0  0  0  0  0
   -1.8641   -1.1184    4.4220 H   0  0  0  0  0  0  0  0  0  0  0  0
   -0.4678   -1.8787    5.2050 H   0  0  0  0  0  0  0  0  0  0  0  0
   -2.0709   -2.0021    5.9348 H   0  0  0  0  0  0  0  0  0  0  0  0
  1  2  1  0  0  0  0
  1 11  1  0  0  0  0
  3  1  1  0  0  0  0
  4  3  2  0  0  0  0
  5  7  2  0  0  0  0
  5  3  1  0  0  0  0
  6  5  1  0  0  0  0
  7  9  1  0  0  0  0
  8  7  1  0  0  0  0
  9 10  1  0  0  0  0
  9 11  1  0  0  0  0
 11 12  2  0  0  0  0
 13 14  1  0  0  0  0
 13 18  1  0  0  0  0
 14 15  1  0  0  0  0
 14 16  1  0  0  0  0
 17 14  1  0  0  0  0
 18 21  1  0  0  0  0
 18 20  1  0  0  0  0
 19 18  1  0  0  0  0
 22 24  1  0  0  0  0
 22 13  1  0  0  0  0
 23 22  1  0  0  0  0
 25 22  1  0  0  0  0
 26 29  1  0  0  0  0
 26 13  1  0  0  0  0
 27 26  1  0  0  0  0
 28 26  1  0  0  0  0
M  END
>  <SMILES>
[nH]1c(=O)cc[nH]c1=O.C(C)(C)(C)C

>  <MoleculeName>
UracilNeopentane150

>  <Distance Scale>
1.5

>  <Energy Value>
-0.92

$$$$
/home/S66X8/2791_12MeNH2Water110.xyz
 OpenBabel06262409173D

 10  8  0  0  0  0  0  0  0  0999 V2000
   -0.5335   -0.2796    0.1070 N   0  0  0  0  0  0  0  0  0  0  0  0
   -0.6292   -1.2484    0.3828 H   0  0  0  0  0  0  0  0  0  0  0  0
   -1.1226   -0.1662   -0.7078 H   0  0  0  0  0  0  0  0  0  0  0  0
   -1.0169    0.5885    1.1874 C   0  0  0  0  0  0  0  0  0  0  0  0
   -0.9128    1.6256    0.8795 H   0  0  0  0  0  0  0  0  0  0  0  0
   -2.0547    0.4151    1.4785 H   0  0  0  0  0  0  0  0  0  0  0  0
   -0.3850    0.4488    2.0606 H   0  0  0  0  0  0  0  0  0  0  0  0
    2.3135    1.0026    0.2038 O   0  0  0  0  0  0  0  0  0  0  0  0
    1.4960    0.5063    0.0307 H   0  0  0  0  0  0  0  0  0  0  0  0
    2.8954    0.7441   -0.5119 H   0  0  0  0  0  0  0  0  0  0  0  0
  1  2  1  0  0  0  0
  1  4  1  0  0  0  0
  3  1  1  0  0  0  0
  4  6  1  0  0  0  0
  4  7  1  0  0  0  0
  5  4  1  0  0  0  0
  9  8  1  0  0  0  0
 10  8  1  0  0  0  0
M  END
>  <SMILES>
NC.O

>  <MoleculeName>
MeNH2Water110

>  <Distance Scale>
1.1

>  <Energy Value>
-6.66

$$$$
/home/S66X8/3009_39BenzeneCyclopentane150.xyz
 OpenBabel06262409173D

 27 27  0  0  0  0  0  0  0  0999 V2000
    0.7655    0.8682    0.8210 C   0  0  0  0  0  0  0  0  0  0  0  0
    1.4375    1.6800    1.0651 H   0  0  0  0  0  0  0  0  0  0  0  0
    1.2377   -0.4428    0.7939 C   0  0  0  0  0  0  0  0  0  0  0  0
    2.2758   -0.6485    1.0177 H   0  0  0  0  0  0  0  0  0  0  0  0
    0.3722   -1.4885    0.4773 C   0  0  0  0  0  0  0  0  0  0  0  0
    0.7382   -2.5061    0.4571 H   0  0  0  0  0  0  0  0  0  0  0  0
   -0.9649   -1.2230    0.1869 C   0  0  0  0  0  0  0  0  0  0  0  0
   -1.6365   -2.0346   -0.0578 H   0  0  0  0  0  0  0  0  0  0  0  0
   -1.4371    0.0884    0.2133 C   0  0  0  0  0  0  0  0  0  0  0  0
   -2.4747    0.2943   -0.0115 H   0  0  0  0  0  0  0  0  0  0  0  0
   -0.5719    1.1340    0.5308 C   0  0  0  0  0  0  0  0  0  0  0  0
   -0.9377    2.1517    0.5511 H   0  0  0  0  0  0  0  0  0  0  0  0
   -0.6937   -0.6034    5.6012 C   0  0  0  0  0  0  0  0  0  0  0  0
   -0.8000   -0.4285    4.5289 H   0  0  0  0  0  0  0  0  0  0  0  0
   -1.3453   -1.4327    5.8744 H   0  0  0  0  0  0  0  0  0  0  0  0
    0.7758   -0.8605    5.9454 C   0  0  0  0  0  0  0  0  0  0  0  0
    1.2711   -1.4981    5.2148 H   0  0  0  0  0  0  0  0  0  0  0  0
    0.8391   -1.3607    6.9128 H   0  0  0  0  0  0  0  0  0  0  0  0
    1.4160    0.5449    6.0363 C   0  0  0  0  0  0  0  0  0  0  0  0
    2.0662    0.7376    5.1845 H   0  0  0  0  0  0  0  0  0  0  0  0
    2.0288    0.6341    6.9321 H   0  0  0  0  0  0  0  0  0  0  0  0
    0.2369    1.5441    6.0632 C   0  0  0  0  0  0  0  0  0  0  0  0
    0.1198    2.0031    5.0809 H   0  0  0  0  0  0  0  0  0  0  0  0
    0.3825    2.3456    6.7856 H   0  0  0  0  0  0  0  0  0  0  0  0
   -0.9968    0.6870    6.3588 C   0  0  0  0  0  0  0  0  0  0  0  0
   -1.9278    1.1627    6.0529 H   0  0  0  0  0  0  0  0  0  0  0  0
   -1.0623    0.4777    7.4294 H   0  0  0  0  0  0  0  0  0  0  0  0
  1  2  1  0  0  0  0
  3  1  1  0  0  0  0
  3  4  1  0  0  0  0
  5  3  2  0  0  0  0
  6  5  1  0  0  0  0
  7  9  2  0  0  0  0
  7  5  1  0  0  0  0
  8  7  1  0  0  0  0
  9 11  1  0  0  0  0
 10  9  1  0  0  0  0
 11 12  1  0  0  0  0
 11  1  2  0  0  0  0
 13 15  1  0  0  0  0
 13 16  1  0  0  0  0
 13 25  1  0  0  0  0
 14 13  1  0  0  0  0
 16 19  1  0  0  0  0
 16 18  1  0  0  0  0
 17 16  1  0  0  0  0
 19 22  1  0  0  0  0
 19 21  1  0  0  0  0
 20 19  1  0  0  0  0
 22 25  1  0  0  0  0
 22 24  1  0  0  0  0
 23 22  1  0  0  0  0
 25 27  1  0  0  0  0
 26 25  1  0  0  0  0
M  END
>  <SMILES>
c1ccccc1.C1CCCC1

>  <MoleculeName>
BenzeneCyclopentane150

>  <Distance Scale>
1.5

>  <Energy Value>
-0.9

$$$$
/home/S66X8/2713_02WaterMeOH150.xyz
 OpenBabel06262409173D

  9  7  0  0  0  0  0  0  0  0999 V2000
   -0.5253   -0.0510   -0.3145 O   0  0  0  0  0  0  0  0  0  0  0  0
   -0.9420    0.7479    0.0113 H   0  0  0  0  0  0  0  0  0  0  0  0
    0.4037    0.0598   -0.0736 H   0  0  0  0  0  0  0  0  0  0  0  0
    3.3388    0.0379    0.1496 O   0  0  0  0  0  0  0  0  0  0  0  0
    3.7067   -0.5342    0.8271 H   0  0  0  0  0  0  0  0  0  0  0  0
    3.8038   -0.4338   -1.1126 C   0  0  0  0  0  0  0  0  0  0  0  0
    3.3730    0.2173   -1.8657 H   0  0  0  0  0  0  0  0  0  0  0  0
    4.8897   -0.3830   -1.1869 H   0  0  0  0  0  0  0  0  0  0  0  0
    3.4754   -1.4536   -1.3117 H   0  0  0  0  0  0  0  0  0  0  0  0
  1  3  1  0  0  0  0
  1  2  1  0  0  0  0
  4  5  1  0  0  0  0
  6  4  1  0  0  0  0
  7  6  1  0  0  0  0
  8  6  1  0  0  0  0
  9  6  1  0  0  0  0
M  END
>  <SMILES>
O.OC

>  <MoleculeName>
WaterMeOH150

>  <Distance Scale>
1.5

>  <Energy Value>
-2.39

$$$$
/home/S66X8/3205_64PeptideEthene100.xyz
 OpenBabel06262409173D

 18 16  0  0  0  0  0  0  0  0999 V2000
    1.6297    0.5030    0.2701 C   0  0  0  0  0  0  0  0  0  0  0  0
    1.6416    1.4592   -0.2481 H   0  0  0  0  0  0  0  0  0  0  0  0
    2.3153   -0.1836   -0.2176 H   0  0  0  0  0  0  0  0  0  0  0  0
    1.9697    0.6494    1.2940 H   0  0  0  0  0  0  0  0  0  0  0  0
    0.2618   -0.1329    0.3146 C   0  0  0  0  0  0  0  0  0  0  0  0
    0.0993   -1.3096    0.6118 O   0  0  0  0  0  0  0  0  0  0  0  0
   -0.7735    0.7025    0.0221 N   0  0  0  0  0  0  0  0  0  0  0  0
   -0.5690    1.6666   -0.1658 H   0  0  0  0  0  0  0  0  0  0  0  0
   -2.1500    0.2660    0.0951 C   0  0  0  0  0  0  0  0  0  0  0  0
   -2.1447   -0.8194    0.1009 H   0  0  0  0  0  0  0  0  0  0  0  0
   -2.6405    0.6158    1.0036 H   0  0  0  0  0  0  0  0  0  0  0  0
   -2.7077    0.6208   -0.7683 H   0  0  0  0  0  0  0  0  0  0  0  0
   -0.0391    0.5176    3.8205 C   0  0  0  0  0  0  0  0  0  0  0  0
   -0.0439    1.2598    4.6064 H   0  0  0  0  0  0  0  0  0  0  0  0
   -0.6876    0.6854    2.9719 H   0  0  0  0  0  0  0  0  0  0  0  0
    0.7295   -0.5694    3.8904 C   0  0  0  0  0  0  0  0  0  0  0  0
    1.3748   -0.7412    4.7405 H   0  0  0  0  0  0  0  0  0  0  0  0
    0.7243   -1.3046    3.0980 H   0  0  0  0  0  0  0  0  0  0  0  0
  1  5  1  0  0  0  0
  1  4  1  0  0  0  0
  2  1  1  0  0  0  0
  3  1  1  0  0  0  0
  5  6  2  0  0  0  0
  7  9  1  0  0  0  0
  7  5  1  0  0  0  0
  8  7  1  0  0  0  0
  9 10  1  0  0  0  0
  9 11  1  0  0  0  0
 12  9  1  0  0  0  0
 13 16  2  0  0  0  0
 13 14  1  0  0  0  0
 15 13  1  0  0  0  0
 16 17  1  0  0  0  0
 18 16  1  0  0  0  0
M  END
>  <SMILES>
CC(=O)NC.C=C

>  <MoleculeName>
PeptideEthene100

>  <Distance Scale>
1.0

>  <Energy Value>
-2.99

$$$$
/home/S66X8/2871_22AcOHUracil110.xyz
 OpenBabel06262409173D

 20 19  0  0  0  0  0  0  0  0999 V2000
   -1.1136    1.3270    0.2752 C   0  0  0  0  0  0  0  0  0  0  0  0
   -0.4671    2.3494    0.4615 O   0  0  0  0  0  0  0  0  0  0  0  0
   -0.5781    0.1369    0.0496 O   0  0  0  0  0  0  0  0  0  0  0  0
    0.4133    0.2033    0.0555 H   0  0  0  0  0  0  0  0  0  0  0  0
   -2.6114    1.2862    0.2774 C   0  0  0  0  0  0  0  0  0  0  0  0
   -3.0066    2.2769    0.4658 H   0  0  0  0  0  0  0  0  0  0  0  0
   -2.9643    0.9153   -0.6820 H   0  0  0  0  0  0  0  0  0  0  0  0
   -2.9531    0.5918    1.0412 H   0  0  0  0  0  0  0  0  0  0  0  0
    4.3676    1.0925    0.1822 N   0  0  0  0  0  0  0  0  0  0  0  0
    4.7608    0.1771    0.0105 H   0  0  0  0  0  0  0  0  0  0  0  0
    5.2891    2.1406    0.3637 C   0  0  0  0  0  0  0  0  0  0  0  0
    6.4862    1.9223    0.3108 O   0  0  0  0  0  0  0  0  0  0  0  0
    4.6500    3.4200    0.6043 C   0  0  0  0  0  0  0  0  0  0  0  0
    5.2696    4.2870    0.7557 H   0  0  0  0  0  0  0  0  0  0  0  0
    3.3029    3.5000    0.6336 C   0  0  0  0  0  0  0  0  0  0  0  0
    2.7801    4.4285    0.8089 H   0  0  0  0  0  0  0  0  0  0  0  0
    2.4992    2.4094    0.4432 N   0  0  0  0  0  0  0  0  0  0  0  0
    1.4752    2.4793    0.4670 H   0  0  0  0  0  0  0  0  0  0  0  0
    2.9991    1.1591    0.2091 C   0  0  0  0  0  0  0  0  0  0  0  0
    2.2871    0.1696    0.0356 O   0  0  0  0  0  0  0  0  0  0  0  0
  1  5  1  0  0  0  0
  1  2  2  0  0  0  0
  3  4  1  0  0  0  0
  3  1  1  0  0  0  0
  5  6  1  0  0  0  0
  5  8  1  0  0  0  0
  7  5  1  0  0  0  0
  9 19  1  0  0  0  0
  9 11  1  0  0  0  0
 10  9  1  0  0  0  0
 11 13  1  0  0  0  0
 12 11  2  0  0  0  0
 13 15  2  0  0  0  0
 13 14  1  0  0  0  0
 15 16  1  0  0  0  0
 17 18  1  0  0  0  0
 17 15  1  0  0  0  0
 19 17  1  0  0  0  0
 20 19  2  0  0  0  0
M  END
>  <SMILES>
C(=O)(O)C.[nH]1c(=O)cc[nH]c1=O

>  <MoleculeName>
AcOHUracil110

>  <Distance Scale>
1.1

>  <Energy Value>
-18.41

$$$$
/home/S66X8/2780_11MeNH2Peptide095.xyz
 OpenBabel06262409173D

 19 17  0  0  0  0  0  0  0  0999 V2000
   -0.5697    0.8144    0.1011 N   0  0  0  0  0  0  0  0  0  0  0  0
    0.1309    0.5614   -0.5876 H   0  0  0  0  0  0  0  0  0  0  0  0
   -1.4613    0.5269   -0.2804 H   0  0  0  0  0  0  0  0  0  0  0  0
   -0.3055    0.0657    1.3288 C   0  0  0  0  0  0  0  0  0  0  0  0
   -1.0571    0.3143    2.0760 H   0  0  0  0  0  0  0  0  0  0  0  0
   -0.2880   -1.0223    1.2148 H   0  0  0  0  0  0  0  0  0  0  0  0
    0.6605    0.3685    1.7302 H   0  0  0  0  0  0  0  0  0  0  0  0
    2.1832    2.6953   -0.1392 C   0  0  0  0  0  0  0  0  0  0  0  0
    2.3078    3.1065   -1.1383 H   0  0  0  0  0  0  0  0  0  0  0  0
    2.6898    3.3363    0.5786 H   0  0  0  0  0  0  0  0  0  0  0  0
    1.1168    2.6688    0.0792 H   0  0  0  0  0  0  0  0  0  0  0  0
    2.6952    1.2775   -0.1369 C   0  0  0  0  0  0  0  0  0  0  0  0
    2.2352    0.4118   -0.8761 O   0  0  0  0  0  0  0  0  0  0  0  0
    3.6817    1.0045    0.7554 N   0  0  0  0  0  0  0  0  0  0  0  0
    4.0815    1.7594    1.2807 H   0  0  0  0  0  0  0  0  0  0  0  0
    4.2701   -0.3151    0.8329 C   0  0  0  0  0  0  0  0  0  0  0  0
    3.4820   -1.0564    0.7399 H   0  0  0  0  0  0  0  0  0  0  0  0
    4.9914   -0.4871    0.0344 H   0  0  0  0  0  0  0  0  0  0  0  0
    4.7648   -0.4310    1.7928 H   0  0  0  0  0  0  0  0  0  0  0  0
  1  4  1  0  0  0  0
  2  1  1  0  0  0  0
  3  1  1  0  0  0  0
  4  7  1  0  0  0  0
  4  5  1  0  0  0  0
  6  4  1  0  0  0  0
  8 12  1  0  0  0  0
  8 11  1  0  0  0  0
  8 10  1  0  0  0  0
  9  8  1  0  0  0  0
 12 14  1  0  0  0  0
 13 12  2  0  0  0  0
 14 16  1  0  0  0  0
 14 15  1  0  0  0  0
 16 19  1  0  0  0  0
 17 16  1  0  0  0  0
 18 16  1  0  0  0  0
M  END
>  <SMILES>
NC.CC(=O)NC

>  <MoleculeName>
MeNH2Peptide095

>  <Distance Scale>
0.95

>  <Energy Value>
-5.36

$$$$
/home/S66X8/2781_11MeNH2Peptide100.xyz
 OpenBabel06262409173D

 19 17  0  0  0  0  0  0  0  0999 V2000
   -0.5697    0.8144    0.1011 N   0  0  0  0  0  0  0  0  0  0  0  0
    0.1309    0.5614   -0.5876 H   0  0  0  0  0  0  0  0  0  0  0  0
   -1.4613    0.5269   -0.2804 H   0  0  0  0  0  0  0  0  0  0  0  0
   -0.3055    0.0657    1.3288 C   0  0  0  0  0  0  0  0  0  0  0  0
   -1.0571    0.3143    2.0760 H   0  0  0  0  0  0  0  0  0  0  0  0
   -0.2880   -1.0223    1.2148 H   0  0  0  0  0  0  0  0  0  0  0  0
    0.6605    0.3685    1.7302 H   0  0  0  0  0  0  0  0  0  0  0  0
    2.2939    2.6875   -0.1544 C   0  0  0  0  0  0  0  0  0  0  0  0
    2.4185    3.0986   -1.1534 H   0  0  0  0  0  0  0  0  0  0  0  0
    2.8005    3.3285    0.5634 H   0  0  0  0  0  0  0  0  0  0  0  0
    1.2275    2.6609    0.0640 H   0  0  0  0  0  0  0  0  0  0  0  0
    2.8059    1.2697   -0.1521 C   0  0  0  0  0  0  0  0  0  0  0  0
    2.3459    0.4039   -0.8913 O   0  0  0  0  0  0  0  0  0  0  0  0
    3.7924    0.9966    0.7402 N   0  0  0  0  0  0  0  0  0  0  0  0
    4.1921    1.7516    1.2656 H   0  0  0  0  0  0  0  0  0  0  0  0
    4.3808   -0.3230    0.8177 C   0  0  0  0  0  0  0  0  0  0  0  0
    3.5926   -1.0643    0.7247 H   0  0  0  0  0  0  0  0  0  0  0  0
    5.1021   -0.4949    0.0192 H   0  0  0  0  0  0  0  0  0  0  0  0
    4.8755   -0.4388    1.7777 H   0  0  0  0  0  0  0  0  0  0  0  0
  1  4  1  0  0  0  0
  2  1  1  0  0  0  0
  3  1  1  0  0  0  0
  4  7  1  0  0  0  0
  4  5  1  0  0  0  0
  6  4  1  0  0  0  0
  8 12  1  0  0  0  0
  8 11  1  0  0  0  0
  8 10  1  0  0  0  0
  9  8  1  0  0  0  0
 12 14  1  0  0  0  0
 13 12  2  0  0  0  0
 14 16  1  0  0  0  0
 14 15  1  0  0  0  0
 16 19  1  0  0  0  0
 17 16  1  0  0  0  0
 18 16  1  0  0  0  0
M  END
>  <SMILES>
NC.CC(=O)NC

>  <MoleculeName>
MeNH2Peptide100

>  <Distance Scale>
1.0

>  <Energy Value>
-5.41

$$$$
/home/S66X8/3114_52BenzeneAcOHOHpi200.xyz
 OpenBabel06262409173D

 20 19  0  0  0  0  0  0  0  0999 V2000
    0.9641    0.8751    0.3780 C   0  0  0  0  0  0  0  0  0  0  0  0
    1.6598    1.6999    0.4460 H   0  0  0  0  0  0  0  0  0  0  0  0
    1.4311   -0.4131    0.1190 C   0  0  0  0  0  0  0  0  0  0  0  0
    2.4895   -0.5872   -0.0170 H   0  0  0  0  0  0  0  0  0  0  0  0
    0.5341   -1.4776    0.0424 C   0  0  0  0  0  0  0  0  0  0  0  0
    0.8970   -2.4774   -0.1520 H   0  0  0  0  0  0  0  0  0  0  0  0
   -0.8303   -1.2536    0.2209 C   0  0  0  0  0  0  0  0  0  0  0  0
   -1.5258   -2.0796    0.1641 H   0  0  0  0  0  0  0  0  0  0  0  0
   -1.2976    0.0344    0.4802 C   0  0  0  0  0  0  0  0  0  0  0  0
   -2.3544    0.2080    0.6286 H   0  0  0  0  0  0  0  0  0  0  0  0
   -0.4004    1.0998    0.5616 C   0  0  0  0  0  0  0  0  0  0  0  0
   -0.7605    2.0938    0.7848 H   0  0  0  0  0  0  0  0  0  0  0  0
    0.0686    0.1546    6.9118 C   0  0  0  0  0  0  0  0  0  0  0  0
   -0.3996    1.2040    6.5326 O   0  0  0  0  0  0  0  0  0  0  0  0
    0.4719   -0.8230    6.0725 O   0  0  0  0  0  0  0  0  0  0  0  0
    0.3031   -0.4971    5.1711 H   0  0  0  0  0  0  0  0  0  0  0  0
    0.2786   -0.2424    8.3432 C   0  0  0  0  0  0  0  0  0  0  0  0
   -0.0314    0.5669    8.9932 H   0  0  0  0  0  0  0  0  0  0  0  0
   -0.2975   -1.1390    8.5602 H   0  0  0  0  0  0  0  0  0  0  0  0
    1.3271   -0.4785    8.5082 H   0  0  0  0  0  0  0  0  0  0  0  0
  1  2  1  0  0  0  0
  1 11  1  0  0  0  0
  3  1  2  0  0  0  0
  4  3  1  0  0  0  0
  5  3  1  0  0  0  0
  5  7  2  0  0  0  0
  6  5  1  0  0  0  0
  7  9  1  0  0  0  0
  8  7  1  0  0  0  0
  9 11  2  0  0  0  0
  9 10  1  0  0  0  0
 11 12  1  0  0  0  0
 13 17  1  0  0  0  0
 14 13  2  0  0  0  0
 15 13  1  0  0  0  0
 16 15  1  0  0  0  0
 17 20  1  0  0  0  0
 17 19  1  0  0  0  0
 17 18  1  0  0  0  0
M  END
>  <SMILES>
c1ccccc1.C(=O)(O)C

>  <MoleculeName>
BenzeneAcOHOHpi200

>  <Distance Scale>
2.0

>  <Energy Value>
-0.55

$$$$
/home/S66X8/3113_52BenzeneAcOHOHpi150.xyz
 OpenBabel06262409173D

 20 19  0  0  0  0  0  0  0  0999 V2000
    0.9641    0.8751    0.3780 C   0  0  0  0  0  0  0  0  0  0  0  0
    1.6598    1.6999    0.4460 H   0  0  0  0  0  0  0  0  0  0  0  0
    1.4311   -0.4131    0.1190 C   0  0  0  0  0  0  0  0  0  0  0  0
    2.4895   -0.5872   -0.0170 H   0  0  0  0  0  0  0  0  0  0  0  0
    0.5341   -1.4776    0.0424 C   0  0  0  0  0  0  0  0  0  0  0  0
    0.8970   -2.4774   -0.1520 H   0  0  0  0  0  0  0  0  0  0  0  0
   -0.8303   -1.2536    0.2209 C   0  0  0  0  0  0  0  0  0  0  0  0
   -1.5258   -2.0796    0.1641 H   0  0  0  0  0  0  0  0  0  0  0  0
   -1.2976    0.0344    0.4802 C   0  0  0  0  0  0  0  0  0  0  0  0
   -2.3544    0.2080    0.6286 H   0  0  0  0  0  0  0  0  0  0  0  0
   -0.4004    1.0998    0.5616 C   0  0  0  0  0  0  0  0  0  0  0  0
   -0.7605    2.0938    0.7848 H   0  0  0  0  0  0  0  0  0  0  0  0
   -0.0235    0.3403    5.6638 C   0  0  0  0  0  0  0  0  0  0  0  0
   -0.4917    1.3898    5.2846 O   0  0  0  0  0  0  0  0  0  0  0  0
    0.3797   -0.6372    4.8245 O   0  0  0  0  0  0  0  0  0  0  0  0
    0.2110   -0.3113    3.9231 H   0  0  0  0  0  0  0  0  0  0  0  0
    0.1864   -0.0567    7.0952 C   0  0  0  0  0  0  0  0  0  0  0  0
   -0.1236    0.7527    7.7452 H   0  0  0  0  0  0  0  0  0  0  0  0
   -0.3897   -0.9533    7.3122 H   0  0  0  0  0  0  0  0  0  0  0  0
    1.2349   -0.2928    7.2602 H   0  0  0  0  0  0  0  0  0  0  0  0
  1  2  1  0  0  0  0
  1 11  1  0  0  0  0
  3  1  2  0  0  0  0
  4  3  1  0  0  0  0
  5  3  1  0  0  0  0
  5  7  2  0  0  0  0
  6  5  1  0  0  0  0
  7  9  1  0  0  0  0
  8  7  1  0  0  0  0
  9 11  2  0  0  0  0
  9 10  1  0  0  0  0
 11 12  1  0  0  0  0
 13 17  1  0  0  0  0
 14 13  2  0  0  0  0
 15 13  1  0  0  0  0
 16 15  1  0  0  0  0
 17 20  1  0  0  0  0
 17 19  1  0  0  0  0
 17 18  1  0  0  0  0
M  END
>  <SMILES>
c1ccccc1.C(=O)(O)C

>  <MoleculeName>
BenzeneAcOHOHpi150

>  <Distance Scale>
1.5

>  <Energy Value>
-1.7

$$$$
/home/S66X8/3032_42UracilCyclopentane125.xyz
 OpenBabel06262409173D

 27 27  0  0  0  0  0  0  0  0999 V2000
    0.1957   -0.8447    0.8238 N   0  0  0  0  0  0  0  0  0  0  0  0
    0.4504   -1.7968    1.0498 H   0  0  0  0  0  0  0  0  0  0  0  0
   -1.1790   -0.5737    0.7595 C   0  0  0  0  0  0  0  0  0  0  0  0
   -1.9936   -1.4563    0.9669 O   0  0  0  0  0  0  0  0  0  0  0  0
   -1.4767    0.8112    0.4376 C   0  0  0  0  0  0  0  0  0  0  0  0
   -2.5064    1.1157    0.3639 H   0  0  0  0  0  0  0  0  0  0  0  0
   -0.4681    1.6830    0.2349 C   0  0  0  0  0  0  0  0  0  0  0  0
   -0.6384    2.7216   -0.0062 H   0  0  0  0  0  0  0  0  0  0  0  0
    0.8456    1.3060    0.3268 N   0  0  0  0  0  0  0  0  0  0  0  0
    1.5897    1.9689    0.1860 H   0  0  0  0  0  0  0  0  0  0  0  0
    1.2543    0.0195    0.6362 C   0  0  0  0  0  0  0  0  0  0  0  0
    2.4223   -0.3017    0.7319 O   0  0  0  0  0  0  0  0  0  0  0  0
    1.0805   -0.8765    5.1697 C   0  0  0  0  0  0  0  0  0  0  0  0
    1.5343   -0.9685    4.1817 H   0  0  0  0  0  0  0  0  0  0  0  0
    1.6250   -1.5404    5.8389 H   0  0  0  0  0  0  0  0  0  0  0  0
    1.1348    0.5895    5.6027 C   0  0  0  0  0  0  0  0  0  0  0  0
    2.0931    1.0624    5.3919 H   0  0  0  0  0  0  0  0  0  0  0  0
    0.9467    0.6711    6.6759 H   0  0  0  0  0  0  0  0  0  0  0  0
   -0.0326    1.2023    4.8319 C   0  0  0  0  0  0  0  0  0  0  0  0
    0.2417    1.2911    3.7784 H   0  0  0  0  0  0  0  0  0  0  0  0
   -0.3170    2.1935    5.1835 H   0  0  0  0  0  0  0  0  0  0  0  0
   -1.1495    0.1647    5.0029 C   0  0  0  0  0  0  0  0  0  0  0  0
   -1.8750    0.1884    4.1915 H   0  0  0  0  0  0  0  0  0  0  0  0
   -1.6936    0.3694    5.9252 H   0  0  0  0  0  0  0  0  0  0  0  0
   -0.4265   -1.2018    5.1066 C   0  0  0  0  0  0  0  0  0  0  0  0
   -0.6691   -1.8460    4.2632 H   0  0  0  0  0  0  0  0  0  0  0  0
   -0.7416   -1.7292    6.0057 H   0  0  0  0  0  0  0  0  0  0  0  0
  1  2  1  0  0  0  0
  3  1  1  0  0  0  0
  3  4  2  0  0  0  0
  5  3  1  0  0  0  0
  6  5  1  0  0  0  0
  7  9  1  0  0  0  0
  7  5  2  0  0  0  0
  8  7  1  0  0  0  0
  9 11  1  0  0  0  0
 10  9  1  0  0  0  0
 11 12  2  0  0  0  0
 11  1  1  0  0  0  0
 13 16  1  0  0  0  0
 13 15  1  0  0  0  0
 14 13  1  0  0  0  0
 16 18  1  0  0  0  0
 17 16  1  0  0  0  0
 19 22  1  0  0  0  0
 19 21  1  0  0  0  0
 19 16  1  0  0  0  0
 20 19  1  0  0  0  0
 22 25  1  0  0  0  0
 22 24  1  0  0  0  0
 23 22  1  0  0  0  0
 25 13  1  0  0  0  0
 25 27  1  0  0  0  0
 26 25  1  0  0  0  0
M  END
>  <SMILES>
[nH]1c(=O)cc[nH]c1=O.C1CCCC1

>  <MoleculeName>
UracilCyclopentane125

>  <Distance Scale>
1.25

>  <Energy Value>
-2.29

$$$$
/home/S66X8/2876_23AcNH2Uracil095.xyz
 OpenBabel06262409173D

 21 20  0  0  0  0  0  0  0  0999 V2000
   -1.2327    1.2116   -0.1416 C   0  0  0  0  0  0  0  0  0  0  0  0
   -0.5713    2.2420    0.0256 O   0  0  0  0  0  0  0  0  0  0  0  0
   -0.6706    0.0039   -0.3143 N   0  0  0  0  0  0  0  0  0  0  0  0
    0.3438   -0.0906   -0.3083 H   0  0  0  0  0  0  0  0  0  0  0  0
   -1.2442   -0.8063   -0.4467 H   0  0  0  0  0  0  0  0  0  0  0  0
   -2.7382    1.2668   -0.1559 C   0  0  0  0  0  0  0  0  0  0  0  0
   -3.0780    1.6466    0.8045 H   0  0  0  0  0  0  0  0  0  0  0  0
   -3.2021    0.3029   -0.3462 H   0  0  0  0  0  0  0  0  0  0  0  0
   -3.0500    1.9755   -0.9186 H   0  0  0  0  0  0  0  0  0  0  0  0
    4.1139    1.1162   -0.1206 N   0  0  0  0  0  0  0  0  0  0  0  0
    4.6040    0.2402   -0.2385 H   0  0  0  0  0  0  0  0  0  0  0  0
    4.9176    2.2591    0.0299 C   0  0  0  0  0  0  0  0  0  0  0  0
    6.1331    2.1634    0.0147 O   0  0  0  0  0  0  0  0  0  0  0  0
    4.1450    3.4744    0.1931 C   0  0  0  0  0  0  0  0  0  0  0  0
    4.6667    4.4076    0.3161 H   0  0  0  0  0  0  0  0  0  0  0  0
    2.7958    3.4127    0.1874 C   0  0  0  0  0  0  0  0  0  0  0  0
    2.1754    4.2891    0.3051 H   0  0  0  0  0  0  0  0  0  0  0  0
    2.1107    2.2404    0.0328 N   0  0  0  0  0  0  0  0  0  0  0  0
    1.0779    2.2313    0.0320 H   0  0  0  0  0  0  0  0  0  0  0  0
    2.7416    1.0359   -0.1294 C   0  0  0  0  0  0  0  0  0  0  0  0
    2.1444   -0.0280   -0.2712 O   0  0  0  0  0  0  0  0  0  0  0  0
  1  2  2  0  0  0  0
  3  4  1  0  0  0  0
  3  1  1  0  0  0  0
  5  3  1  0  0  0  0
  6  1  1  0  0  0  0
  6  7  1  0  0  0  0
  8  6  1  0  0  0  0
  9  6  1  0  0  0  0
 10 12  1  0  0  0  0
 11 10  1  0  0  0  0
 12 14  1  0  0  0  0
 13 12  2  0  0  0  0
 14 15  1  0  0  0  0
 16 14  2  0  0  0  0
 16 17  1  0  0  0  0
 18 16  1  0  0  0  0
 19 18  1  0  0  0  0
 20 10  1  0  0  0  0
 20 18  1  0  0  0  0
 21 20  2  0  0  0  0
M  END
>  <SMILES>
C(=O)(N)C.[nH]1c(=O)cc[nH]c1=O

>  <MoleculeName>
AcNH2Uracil095

>  <Distance Scale>
0.95

>  <Energy Value>
-18.89

$$$$
/home/S66X8/3043_44EthenePentane090.xyz
 OpenBabel06262409173D

 23 21  0  0  0  0  0  0  0  0999 V2000
    0.6664    0.1838    0.4197 C   0  0  0  0  0  0  0  0  0  0  0  0
    1.2289   -0.3299    1.1863 H   0  0  0  0  0  0  0  0  0  0  0  0
    1.2280    0.6972   -0.3476 H   0  0  0  0  0  0  0  0  0  0  0  0
   -0.6660    0.1830    0.4196 C   0  0  0  0  0  0  0  0  0  0  0  0
   -1.2279   -0.3315    1.1861 H   0  0  0  0  0  0  0  0  0  0  0  0
   -1.2282    0.6956   -0.3477 H   0  0  0  0  0  0  0  0  0  0  0  0
   -2.5327   -0.3781    3.9056 C   0  0  0  0  0  0  0  0  0  0  0  0
   -2.5622   -0.9911    3.0044 H   0  0  0  0  0  0  0  0  0  0  0  0
   -2.5689   -1.0523    4.7612 H   0  0  0  0  0  0  0  0  0  0  0  0
   -3.4339    0.2329    3.9228 H   0  0  0  0  0  0  0  0  0  0  0  0
   -1.2713    0.4746    3.9414 C   0  0  0  0  0  0  0  0  0  0  0  0
   -1.2717    1.0947    4.8408 H   0  0  0  0  0  0  0  0  0  0  0  0
   -1.2629    1.1615    3.0924 H   0  0  0  0  0  0  0  0  0  0  0  0
   -0.0000   -0.3630    3.9145 C   0  0  0  0  0  0  0  0  0  0  0  0
   -0.0002   -1.0496    4.7663 H   0  0  0  0  0  0  0  0  0  0  0  0
    0.0001   -0.9905    3.0178 H   0  0  0  0  0  0  0  0  0  0  0  0
    1.2712    0.4746    3.9419 C   0  0  0  0  0  0  0  0  0  0  0  0
    1.2715    1.0944    4.8414 H   0  0  0  0  0  0  0  0  0  0  0  0
    1.2630    1.1617    3.0930 H   0  0  0  0  0  0  0  0  0  0  0  0
    2.5326   -0.3781    3.9061 C   0  0  0  0  0  0  0  0  0  0  0  0
    2.5623   -0.9910    3.0047 H   0  0  0  0  0  0  0  0  0  0  0  0
    3.4338    0.2328    3.9236 H   0  0  0  0  0  0  0  0  0  0  0  0
    2.5686   -1.0526    4.7616 H   0  0  0  0  0  0  0  0  0  0  0  0
  1  2  1  0  0  0  0
  3  1  1  0  0  0  0
  4  1  2  0  0  0  0
  4  5  1  0  0  0  0
  6  4  1  0  0  0  0
  7 10  1  0  0  0  0
  7 11  1  0  0  0  0
  7  9  1  0  0  0  0
  8  7  1  0  0  0  0
 11 12  1  0  0  0  0
 13 11  1  0  0  0  0
 14 11  1  0  0  0  0
 14 17  1  0  0  0  0
 14 15  1  0  0  0  0
 16 14  1  0  0  0  0
 17 18  1  0  0  0  0
 19 17  1  0  0  0  0
 20 22  1  0  0  0  0
 20 17  1  0  0  0  0
 20 23  1  0  0  0  0
 21 20  1  0  0  0  0
M  END
>  <SMILES>
C=C.CCCCC

>  <MoleculeName>
EthenePentane090

>  <Distance Scale>
0.9

>  <Energy Value>
-1.66

$$$$
/home/S66X8/2706_01WaterWater200.xyz
 OpenBabel06262409173D

  6  4  0  0  0  0  0  0  0  0999 V2000
   -0.7022   -0.0561    0.0099 O   0  0  0  0  0  0  0  0  0  0  0  0
   -1.0222    0.8468   -0.0115 H   0  0  0  0  0  0  0  0  0  0  0  0
    0.2575    0.0421    0.0052 H   0  0  0  0  0  0  0  0  0  0  0  0
    4.2803    0.0106   -0.0042 O   0  0  0  0  0  0  0  0  0  0  0  0
    4.6570   -0.4278    0.7619 H   0  0  0  0  0  0  0  0  0  0  0  0
    4.6526   -0.4657   -0.7496 H   0  0  0  0  0  0  0  0  0  0  0  0
  2  1  1  0  0  0  0
  3  1  1  0  0  0  0
  4  5  1  0  0  0  0
  6  4  1  0  0  0  0
M  END
>  <SMILES>
O.O

>  <MoleculeName>
WaterWater200

>  <Distance Scale>
2.0

>  <Energy Value>
-0.87

$$$$
/home/S66X8/2830_17UracilUracilBP105.xyz
 OpenBabel06262409173D

 24 24  0  0  0  0  0  0  0  0999 V2000
   -0.7300    0.0228    0.0009 N   0  0  0  0  0  0  0  0  0  0  0  0
    0.2984    0.0740    0.0016 H   0  0  0  0  0  0  0  0  0  0  0  0
   -1.2968   -1.2404    0.0015 C   0  0  0  0  0  0  0  0  0  0  0  0
   -0.5941   -2.2535    0.0026 O   0  0  0  0  0  0  0  0  0  0  0  0
   -2.7436   -1.2623    0.0005 C   0  0  0  0  0  0  0  0  0  0  0  0
   -3.2496   -2.2118    0.0008 H   0  0  0  0  0  0  0  0  0  0  0  0
   -3.4220   -0.0959   -0.0009 C   0  0  0  0  0  0  0  0  0  0  0  0
   -4.5009   -0.0492   -0.0017 H   0  0  0  0  0  0  0  0  0  0  0  0
   -2.7748    1.1054   -0.0014 N   0  0  0  0  0  0  0  0  0  0  0  0
   -3.2838    1.9739   -0.0025 H   0  0  0  0  0  0  0  0  0  0  0  0
   -1.3915    1.2370   -0.0005 C   0  0  0  0  0  0  0  0  0  0  0  0
   -0.8398    2.3170   -0.0010 O   0  0  0  0  0  0  0  0  0  0  0  0
    4.2415   -1.0908    0.0005 N   0  0  0  0  0  0  0  0  0  0  0  0
    4.6888   -0.1842    0.0009 H   0  0  0  0  0  0  0  0  0  0  0  0
    5.0976   -2.2054   -0.0010 C   0  0  0  0  0  0  0  0  0  0  0  0
    6.3070   -2.0537   -0.0017 O   0  0  0  0  0  0  0  0  0  0  0  0
    4.3833   -3.4676   -0.0015 C   0  0  0  0  0  0  0  0  0  0  0  0
    4.9499   -4.3826   -0.0026 H   0  0  0  0  0  0  0  0  0  0  0  0
    3.0332   -3.4714   -0.0005 C   0  0  0  0  0  0  0  0  0  0  0  0
    2.4562   -4.3844   -0.0009 H   0  0  0  0  0  0  0  0  0  0  0  0
    2.2952   -2.3205    0.0009 N   0  0  0  0  0  0  0  0  0  0  0  0
    1.2688   -2.3420    0.0016 H   0  0  0  0  0  0  0  0  0  0  0  0
    2.8680   -1.0759    0.0015 C   0  0  0  0  0  0  0  0  0  0  0  0
    2.2176   -0.0346    0.0027 O   0  0  0  0  0  0  0  0  0  0  0  0
  1  3  1  0  0  0  0
  1  2  1  0  0  0  0
  3  4  2  0  0  0  0
  5  6  1  0  0  0  0
  5  3  1  0  0  0  0
  7  5  2  0  0  0  0
  8  7  1  0  0  0  0
  9  7  1  0  0  0  0
  9 11  1  0  0  0  0
 10  9  1  0  0  0  0
 11  1  1  0  0  0  0
 12 11  2  0  0  0  0
 13 14  1  0  0  0  0
 13 23  1  0  0  0  0
 15 13  1  0  0  0  0
 16 15  2  0  0  0  0
 17 15  1  0  0  0  0
 17 19  2  0  0  0  0
 18 17  1  0  0  0  0
 19 21  1  0  0  0  0
 20 19  1  0  0  0  0
 21 23  1  0  0  0  0
 21 22  1  0  0  0  0
 23 24  2  0  0  0  0
M  END
>  <SMILES>
[nH]1c(=O)cc[nH]c1=O.[nH]1c(=O)cc[nH]c1=O

>  <MoleculeName>
UracilUracilBP105

>  <Distance Scale>
1.05

>  <Energy Value>
-16.86

$$$$
/home/S66X8/3153_57BenzenePeptideNHpi150.xyz
 OpenBabel06262409173D

 24 23  0  0  0  0  0  0  0  0999 V2000
    0.4088    1.0510    0.3755 C   0  0  0  0  0  0  0  0  0  0  0  0
    1.0119    1.9485    0.3681 H   0  0  0  0  0  0  0  0  0  0  0  0
    1.0192   -0.1998    0.2891 C   0  0  0  0  0  0  0  0  0  0  0  0
    2.0956   -0.2718    0.2172 H   0  0  0  0  0  0  0  0  0  0  0  0
    0.2417   -1.3569    0.2967 C   0  0  0  0  0  0  0  0  0  0  0  0
    0.7152   -2.3266    0.2281 H   0  0  0  0  0  0  0  0  0  0  0  0
   -1.1462   -1.2643    0.3939 C   0  0  0  0  0  0  0  0  0  0  0  0
   -1.7492   -2.1619    0.3994 H   0  0  0  0  0  0  0  0  0  0  0  0
   -1.7573   -0.0140    0.4830 C   0  0  0  0  0  0  0  0  0  0  0  0
   -2.8335    0.0582    0.5590 H   0  0  0  0  0  0  0  0  0  0  0  0
   -0.9797    1.1442    0.4723 C   0  0  0  0  0  0  0  0  0  0  0  0
   -1.4541    2.1140    0.5371 H   0  0  0  0  0  0  0  0  0  0  0  0
    0.2724    2.0190    5.7024 C   0  0  0  0  0  0  0  0  0  0  0  0
   -0.0857    2.1847    4.6891 H   0  0  0  0  0  0  0  0  0  0  0  0
    1.2970    2.3757    5.7838 H   0  0  0  0  0  0  0  0  0  0  0  0
   -0.3317    2.5926    6.4007 H   0  0  0  0  0  0  0  0  0  0  0  0
    0.2356    0.5658    6.1181 C   0  0  0  0  0  0  0  0  0  0  0  0
    0.5202    0.2134    7.2566 O   0  0  0  0  0  0  0  0  0  0  0  0
   -0.1368   -0.2999    5.1388 N   0  0  0  0  0  0  0  0  0  0  0  0
   -0.2979    0.0581    4.2128 H   0  0  0  0  0  0  0  0  0  0  0  0
   -0.1736   -1.7268    5.3569 C   0  0  0  0  0  0  0  0  0  0  0  0
   -0.0955   -1.8937    6.4269 H   0  0  0  0  0  0  0  0  0  0  0  0
   -1.1088   -2.1452    4.9902 H   0  0  0  0  0  0  0  0  0  0  0  0
    0.6555   -2.2307    4.8596 H   0  0  0  0  0  0  0  0  0  0  0  0
  1 11  1  0  0  0  0
  2  1  1  0  0  0  0
  3  5  1  0  0  0  0
  3  1  2  0  0  0  0
  4  3  1  0  0  0  0
  5  7  2  0  0  0  0
  6  5  1  0  0  0  0
  7  8  1  0  0  0  0
  7  9  1  0  0  0  0
  9 10  1  0  0  0  0
 11  9  2  0  0  0  0
 11 12  1  0  0  0  0
 13 15  1  0  0  0  0
 13 17  1  0  0  0  0
 13 16  1  0  0  0  0
 14 13  1  0  0  0  0
 17 18  2  0  0  0  0
 19 21  1  0  0  0  0
 19 17  1  0  0  0  0
 20 19  1  0  0  0  0
 21 22  1  0  0  0  0
 23 21  1  0  0  0  0
 24 21  1  0  0  0  0
M  END
>  <SMILES>
c1ccccc1.CC(=O)NC

>  <MoleculeName>
BenzenePeptideNHpi150

>  <Distance Scale>
1.5

>  <Energy Value>
-1.8

$$$$
/home/S66X8/2890_24BenzeneBenzenepipi200.xyz
 OpenBabel06262409173D

 24 24  0  0  0  0  0  0  0  0999 V2000
    0.7126    1.1210    0.0605 C   0  0  0  0  0  0  0  0  0  0  0  0
    1.3578    1.9864    0.1277 H   0  0  0  0  0  0  0  0  0  0  0  0
    1.2582   -0.1593    0.1242 C   0  0  0  0  0  0  0  0  0  0  0  0
    2.3250   -0.2871    0.2467 H   0  0  0  0  0  0  0  0  0  0  0  0
    0.4269   -1.2745    0.0427 C   0  0  0  0  0  0  0  0  0  0  0  0
    0.8504   -2.2684    0.0947 H   0  0  0  0  0  0  0  0  0  0  0  0
   -0.9496   -1.1101   -0.1003 C   0  0  0  0  0  0  0  0  0  0  0  0
   -1.5945   -1.9763   -0.1637 H   0  0  0  0  0  0  0  0  0  0  0  0
   -1.4955    0.1711   -0.1615 C   0  0  0  0  0  0  0  0  0  0  0  0
   -2.5638    0.2992   -0.2737 H   0  0  0  0  0  0  0  0  0  0  0  0
   -0.6638    1.2866   -0.0834 C   0  0  0  0  0  0  0  0  0  0  0  0
   -1.0869    2.2810   -0.1329 H   0  0  0  0  0  0  0  0  0  0  0  0
    3.1876    1.0985    7.1428 C   0  0  0  0  0  0  0  0  0  0  0  0
    3.8325    1.9647    7.2066 H   0  0  0  0  0  0  0  0  0  0  0  0
    3.7336   -0.1827    7.2044 C   0  0  0  0  0  0  0  0  0  0  0  0
    4.8018   -0.3108    7.3171 H   0  0  0  0  0  0  0  0  0  0  0  0
    2.9019   -1.2983    7.1257 C   0  0  0  0  0  0  0  0  0  0  0  0
    3.3250   -2.2926    7.1754 H   0  0  0  0  0  0  0  0  0  0  0  0
    1.5255   -1.1326    6.9810 C   0  0  0  0  0  0  0  0  0  0  0  0
    0.8804   -1.9980    6.9134 H   0  0  0  0  0  0  0  0  0  0  0  0
    0.9800    0.1476    6.9170 C   0  0  0  0  0  0  0  0  0  0  0  0
   -0.0866    0.2754    6.7939 H   0  0  0  0  0  0  0  0  0  0  0  0
    1.8113    1.2629    6.9991 C   0  0  0  0  0  0  0  0  0  0  0  0
    1.3877    2.2568    6.9467 H   0  0  0  0  0  0  0  0  0  0  0  0
  1  3  1  0  0  0  0
  1  2  1  0  0  0  0
  3  4  1  0  0  0  0
  5  6  1  0  0  0  0
  5  3  2  0  0  0  0
  7  5  1  0  0  0  0
  8  7  1  0  0  0  0
  9  7  2  0  0  0  0
  9 11  1  0  0  0  0
 10  9  1  0  0  0  0
 11  1  2  0  0  0  0
 12 11  1  0  0  0  0
 13 15  1  0  0  0  0
 13 14  1  0  0  0  0
 15 16  1  0  0  0  0
 17 18  1  0  0  0  0
 17 15  2  0  0  0  0
 19 17  1  0  0  0  0
 20 19  1  0  0  0  0
 21 19  2  0  0  0  0
 21 23  1  0  0  0  0
 22 21  1  0  0  0  0
 23 13  2  0  0  0  0
 24 23  1  0  0  0  0
M  END
>  <SMILES>
c1ccccc1.c1ccccc1

>  <MoleculeName>
BenzeneBenzenepipi200

>  <Distance Scale>
2.0

>  <Energy Value>
-0.06

$$$$
/home/S66X8/2971_35NeopentanePentane090.xyz
 OpenBabel06262409173D

 34 32  0  0  0  0  0  0  0  0999 V2000
   -2.5304   -0.4176    0.6813 C   0  0  0  0  0  0  0  0  0  0  0  0
   -2.5599   -0.9828   -0.2502 H   0  0  0  0  0  0  0  0  0  0  0  0
   -2.5540   -1.1339    1.5027 H   0  0  0  0  0  0  0  0  0  0  0  0
   -3.4362    0.1841    0.7368 H   0  0  0  0  0  0  0  0  0  0  0  0
   -1.2762    0.4436    0.7500 C   0  0  0  0  0  0  0  0  0  0  0  0
   -1.2781    1.0252    1.6751 H   0  0  0  0  0  0  0  0  0  0  0  0
   -1.2803    1.1686   -0.0672 H   0  0  0  0  0  0  0  0  0  0  0  0
    0.0022   -0.3807    0.6790 C   0  0  0  0  0  0  0  0  0  0  0  0
    0.0078   -1.1114    1.4938 H   0  0  0  0  0  0  0  0  0  0  0  0
    0.0062   -0.9605   -0.2488 H   0  0  0  0  0  0  0  0  0  0  0  0
    1.2683    0.4624    0.7494 C   0  0  0  0  0  0  0  0  0  0  0  0
    1.2620    1.0443    1.6742 H   0  0  0  0  0  0  0  0  0  0  0  0
    1.2616    1.1871   -0.0680 H   0  0  0  0  0  0  0  0  0  0  0  0
    2.5350   -0.3804    0.6807 C   0  0  0  0  0  0  0  0  0  0  0  0
    2.5724   -0.9457   -0.2505 H   0  0  0  0  0  0  0  0  0  0  0  0
    3.4320    0.2344    0.7356 H   0  0  0  0  0  0  0  0  0  0  0  0
    2.5692   -1.0958    1.5025 H   0  0  0  0  0  0  0  0  0  0  0  0
   -0.0005    0.0551    4.9274 C   0  0  0  0  0  0  0  0  0  0  0  0
    0.0006   -0.0851    6.4472 C   0  0  0  0  0  0  0  0  0  0  0  0
   -0.8865    0.3790    6.8806 H   0  0  0  0  0  0  0  0  0  0  0  0
    0.0098   -1.1359    6.7402 H   0  0  0  0  0  0  0  0  0  0  0  0
    0.8792    0.3946    6.8808 H   0  0  0  0  0  0  0  0  0  0  0  0
   -1.2399   -0.6266    4.3535 C   0  0  0  0  0  0  0  0  0  0  0  0
   -1.2632   -0.5376    3.2667 H   0  0  0  0  0  0  0  0  0  0  0  0
   -1.2520   -1.6879    4.6066 H   0  0  0  0  0  0  0  0  0  0  0  0
   -2.1509   -0.1743    4.7486 H   0  0  0  0  0  0  0  0  0  0  0  0
    1.2521   -0.6025    4.3540 C   0  0  0  0  0  0  0  0  0  0  0  0
    1.2734   -0.5142    3.2670 H   0  0  0  0  0  0  0  0  0  0  0  0
    1.2852   -1.6631    4.6081 H   0  0  0  0  0  0  0  0  0  0  0  0
    2.1539   -0.1318    4.7484 H   0  0  0  0  0  0  0  0  0  0  0  0
   -0.0147    1.5348    4.5528 C   0  0  0  0  0  0  0  0  0  0  0  0
    0.8630    2.0454    4.9518 H   0  0  0  0  0  0  0  0  0  0  0  0
   -0.0153    1.6613    3.4692 H   0  0  0  0  0  0  0  0  0  0  0  0
   -0.9028    2.0282    4.9506 H   0  0  0  0  0  0  0  0  0  0  0  0
  1  4  1  0  0  0  0
  1  5  1  0  0  0  0
  1  3  1  0  0  0  0
  2  1  1  0  0  0  0
  5  6  1  0  0  0  0
  7  5  1  0  0  0  0
  8 11  1  0  0  0  0
  8  5  1  0  0  0  0
  8  9  1  0  0  0  0
 10  8  1  0  0  0  0
 11 12  1  0  0  0  0
 13 11  1  0  0  0  0
 14 16  1  0  0  0  0
 14 11  1  0  0  0  0
 14 17  1  0  0  0  0
 15 14  1  0  0  0  0
 18 19  1  0  0  0  0
 19 21  1  0  0  0  0
 19 20  1  0  0  0  0
 19 22  1  0  0  0  0
 23 25  1  0  0  0  0
 23 26  1  0  0  0  0
 23 18  1  0  0  0  0
 24 23  1  0  0  0  0
 27 29  1  0  0  0  0
 27 30  1  0  0  0  0
 27 18  1  0  0  0  0
 28 27  1  0  0  0  0
 31 18  1  0  0  0  0
 31 34  1  0  0  0  0
 31 32  1  0  0  0  0
 33 31  1  0  0  0  0
M  END
>  <SMILES>
CCCCC.C(C)(C)(C)C

>  <MoleculeName>
NeopentanePentane090

>  <Distance Scale>
0.9

>  <Energy Value>
-1.85

$$$$
/home/S66X8/3215_65PyridineEthyne110.xyz
 OpenBabel06262409173D

 15 14  0  0  0  0  0  0  0  0999 V2000
   -0.0830    0.0007    1.0552 N   0  0  0  0  0  0  0  0  0  0  0  0
   -0.2029   -1.1417    0.3649 C   0  0  0  0  0  0  0  0  0  0  0  0
   -0.0985   -2.0551    0.9374 H   0  0  0  0  0  0  0  0  0  0  0  0
   -0.4468   -1.1918   -1.0045 C   0  0  0  0  0  0  0  0  0  0  0  0
   -0.5336   -2.1459   -1.5042 H   0  0  0  0  0  0  0  0  0  0  0  0
   -0.5747    0.0034   -1.7043 C   0  0  0  0  0  0  0  0  0  0  0  0
   -0.7637    0.0045   -2.7687 H   0  0  0  0  0  0  0  0  0  0  0  0
   -0.4535    1.1972   -1.0009 C   0  0  0  0  0  0  0  0  0  0  0  0
   -0.5456    2.1523   -1.4978 H   0  0  0  0  0  0  0  0  0  0  0  0
   -0.2093    1.1445    0.3684 C   0  0  0  0  0  0  0  0  0  0  0  0
   -0.1102    2.0567    0.9436 H   0  0  0  0  0  0  0  0  0  0  0  0
    0.5048   -0.0068    5.7812 C   0  0  0  0  0  0  0  0  0  0  0  0
    0.6202   -0.0062    6.8362 H   0  0  0  0  0  0  0  0  0  0  0  0
    0.3727   -0.0074    4.5750 C   0  0  0  0  0  0  0  0  0  0  0  0
    0.2545   -0.0071    3.5105 H   0  0  0  0  0  0  0  0  0  0  0  0
  2  3  1  0  0  0  0
  2  1  2  0  0  0  0
  4  2  1  0  0  0  0
  5  4  1  0  0  0  0
  6  4  2  0  0  0  0
  6  8  1  0  0  0  0
  7  6  1  0  0  0  0
  8 10  2  0  0  0  0
  9  8  1  0  0  0  0
 10 11  1  0  0  0  0
 10  1  1  0  0  0  0
 12 13  1  0  0  0  0
 14 12  3  0  0  0  0
 15 14  1  0  0  0  0
M  END
>  <SMILES>
n1ccccc1.C#C

>  <MoleculeName>
PyridineEthyne110

>  <Distance Scale>
1.1

>  <Energy Value>
-3.68

$$$$
/home/S66X8/2917_28BenzeneUracilpipi100.xyz
 OpenBabel06262409173D

 24 24  0  0  0  0  0  0  0  0999 V2000
    0.8258    1.2365   -0.0403 C   0  0  0  0  0  0  0  0  0  0  0  0
    1.5210    2.0631   -0.0825 H   0  0  0  0  0  0  0  0  0  0  0  0
    1.3002   -0.0629    0.1273 C   0  0  0  0  0  0  0  0  0  0  0  0
    2.3637   -0.2423    0.2077 H   0  0  0  0  0  0  0  0  0  0  0  0
    0.4035   -1.1286    0.1982 C   0  0  0  0  0  0  0  0  0  0  0  0
    0.7738   -2.1374    0.3241 H   0  0  0  0  0  0  0  0  0  0  0  0
   -0.9678   -0.8952    0.1031 C   0  0  0  0  0  0  0  0  0  0  0  0
   -1.6652   -1.7200    0.1604 H   0  0  0  0  0  0  0  0  0  0  0  0
   -1.4435    0.4045   -0.0624 C   0  0  0  0  0  0  0  0  0  0  0  0
   -2.5075    0.5855   -0.1242 H   0  0  0  0  0  0  0  0  0  0  0  0
   -0.5458    1.4688   -0.1362 C   0  0  0  0  0  0  0  0  0  0  0  0
   -0.9142    2.4774   -0.2679 H   0  0  0  0  0  0  0  0  0  0  0  0
   -0.2758    0.6742    3.1943 N   0  0  0  0  0  0  0  0  0  0  0  0
   -0.6491    1.5759    2.9314 H   0  0  0  0  0  0  0  0  0  0  0  0
    1.1163    0.6012    3.3263 C   0  0  0  0  0  0  0  0  0  0  0  0
    1.8073    1.5956    3.1814 O   0  0  0  0  0  0  0  0  0  0  0  0
    1.5952   -0.7329    3.6444 C   0  0  0  0  0  0  0  0  0  0  0  0
    2.6523   -0.8851    3.7785 H   0  0  0  0  0  0  0  0  0  0  0  0
    0.7155   -1.7473    3.7706 C   0  0  0  0  0  0  0  0  0  0  0  0
    1.0215   -2.7557    4.0071 H   0  0  0  0  0  0  0  0  0  0  0  0
   -0.6297   -1.5622    3.6005 N   0  0  0  0  0  0  0  0  0  0  0  0
   -1.2785   -2.3248    3.6994 H   0  0  0  0  0  0  0  0  0  0  0  0
   -1.2042   -0.3374    3.3011 C   0  0  0  0  0  0  0  0  0  0  0  0
   -2.4019   -0.1866    3.1590 O   0  0  0  0  0  0  0  0  0  0  0  0
  1  3  1  0  0  0  0
  2  1  1  0  0  0  0
  3  5  2  0  0  0  0
  3  4  1  0  0  0  0
  5  6  1  0  0  0  0
  7  8  1  0  0  0  0
  7  5  1  0  0  0  0
  9  7  2  0  0  0  0
 10  9  1  0  0  0  0
 11  9  1  0  0  0  0
 11  1  2  0  0  0  0
 12 11  1  0  0  0  0
 13 23  1  0  0  0  0
 13 15  1  0  0  0  0
 14 13  1  0  0  0  0
 15 17  1  0  0  0  0
 16 15  2  0  0  0  0
 17 19  2  0  0  0  0
 17 18  1  0  0  0  0
 19 20  1  0  0  0  0
 21 22  1  0  0  0  0
 21 19  1  0  0  0  0
 23 21  1  0  0  0  0
 24 23  2  0  0  0  0
M  END
>  <SMILES>
c1ccccc1.[nH]1c(=O)cc[nH]c1=O

>  <MoleculeName>
BenzeneUracilpipi100

>  <Distance Scale>
1.0

>  <Energy Value>
-5.71

$$$$
/home/S66X8/2761_08MeOHWater150.xyz
 OpenBabel06262409173D

  9  7  0  0  0  0  0  0  0  0999 V2000
   -0.7866    0.0452   -0.0072 O   0  0  0  0  0  0  0  0  0  0  0  0
    0.1777    0.0127   -0.0068 H   0  0  0  0  0  0  0  0  0  0  0  0
   -1.2480   -1.2903    0.0011 C   0  0  0  0  0  0  0  0  0  0  0  0
   -2.3343   -1.2589    0.0002 H   0  0  0  0  0  0  0  0  0  0  0  0
   -0.9260   -1.8498   -0.8804 H   0  0  0  0  0  0  0  0  0  0  0  0
   -0.9270   -1.8385    0.8901 H   0  0  0  0  0  0  0  0  0  0  0  0
    3.1540   -0.0850   -0.0036 O   0  0  0  0  0  0  0  0  0  0  0  0
    3.5932    0.3032   -0.7635 H   0  0  0  0  0  0  0  0  0  0  0  0
    3.5919    0.3176    0.7494 H   0  0  0  0  0  0  0  0  0  0  0  0
  1  2  1  0  0  0  0
  1  3  1  0  0  0  0
  3  6  1  0  0  0  0
  4  3  1  0  0  0  0
  5  3  1  0  0  0  0
  7  9  1  0  0  0  0
  8  7  1  0  0  0  0
M  END
>  <SMILES>
OC.O

>  <MoleculeName>
MeOHWater150

>  <Distance Scale>
1.5

>  <Energy Value>
-2.2

$$$$
/home/S66X8/2932_30BenzeneEthene095.xyz
 OpenBabel06262409173D

 18 17  0  0  0  0  0  0  0  0999 V2000
    0.8355    1.1152    0.0214 C   0  0  0  0  0  0  0  0  0  0  0  0
    1.4843    1.9806    0.0195 H   0  0  0  0  0  0  0  0  0  0  0  0
    1.3833   -0.1661    0.0238 C   0  0  0  0  0  0  0  0  0  0  0  0
    2.4571   -0.2952    0.0228 H   0  0  0  0  0  0  0  0  0  0  0  0
    0.5476   -1.2813    0.0217 C   0  0  0  0  0  0  0  0  0  0  0  0
    0.9729   -2.2758    0.0198 H   0  0  0  0  0  0  0  0  0  0  0  0
   -0.8355   -1.1152    0.0214 C   0  0  0  0  0  0  0  0  0  0  0  0
   -1.4843   -1.9806    0.0195 H   0  0  0  0  0  0  0  0  0  0  0  0
   -1.3833    0.1662    0.0238 C   0  0  0  0  0  0  0  0  0  0  0  0
   -2.4572    0.2952    0.0228 H   0  0  0  0  0  0  0  0  0  0  0  0
   -0.5476    1.2813    0.0217 C   0  0  0  0  0  0  0  0  0  0  0  0
   -0.9729    2.2758    0.0198 H   0  0  0  0  0  0  0  0  0  0  0  0
    0.6558   -0.1168    3.2830 C   0  0  0  0  0  0  0  0  0  0  0  0
    1.0472   -1.1239    3.2785 H   0  0  0  0  0  0  0  0  0  0  0  0
    1.3709    0.6933    3.2785 H   0  0  0  0  0  0  0  0  0  0  0  0
   -0.6558    0.1168    3.2830 C   0  0  0  0  0  0  0  0  0  0  0  0
   -1.3708   -0.6933    3.2785 H   0  0  0  0  0  0  0  0  0  0  0  0
   -1.0472    1.1239    3.2785 H   0  0  0  0  0  0  0  0  0  0  0  0
  1 11  2  0  0  0  0
  1  3  1  0  0  0  0
  2  1  1  0  0  0  0
  4  3  1  0  0  0  0
  5  3  2  0  0  0  0
  6  5  1  0  0  0  0
  7  5  1  0  0  0  0
  7  9  2  0  0  0  0
  8  7  1  0  0  0  0
 10  9  1  0  0  0  0
 11  9  1  0  0  0  0
 12 11  1  0  0  0  0
 13 16  2  0  0  0  0
 14 13  1  0  0  0  0
 15 13  1  0  0  0  0
 17 16  1  0  0  0  0
 18 16  1  0  0  0  0
M  END
>  <SMILES>
c1ccccc1.C=C

>  <MoleculeName>
BenzeneEthene095

>  <Distance Scale>
0.95

>  <Energy Value>
-1.13

$$$$
/home/S66X8/3027_42UracilCyclopentane090.xyz
 OpenBabel06262409173D

 27 27  0  0  0  0  0  0  0  0999 V2000
    0.1957   -0.8447    0.8238 N   0  0  0  0  0  0  0  0  0  0  0  0
    0.4504   -1.7968    1.0498 H   0  0  0  0  0  0  0  0  0  0  0  0
   -1.1790   -0.5737    0.7595 C   0  0  0  0  0  0  0  0  0  0  0  0
   -1.9936   -1.4563    0.9669 O   0  0  0  0  0  0  0  0  0  0  0  0
   -1.4767    0.8112    0.4376 C   0  0  0  0  0  0  0  0  0  0  0  0
   -2.5064    1.1157    0.3639 H   0  0  0  0  0  0  0  0  0  0  0  0
   -0.4681    1.6830    0.2349 C   0  0  0  0  0  0  0  0  0  0  0  0
   -0.6384    2.7216   -0.0062 H   0  0  0  0  0  0  0  0  0  0  0  0
    0.8456    1.3060    0.3268 N   0  0  0  0  0  0  0  0  0  0  0  0
    1.5897    1.9689    0.1860 H   0  0  0  0  0  0  0  0  0  0  0  0
    1.2543    0.0195    0.6362 C   0  0  0  0  0  0  0  0  0  0  0  0
    2.4223   -0.3017    0.7319 O   0  0  0  0  0  0  0  0  0  0  0  0
    1.0481   -0.8588    4.1187 C   0  0  0  0  0  0  0  0  0  0  0  0
    1.5019   -0.9509    3.1308 H   0  0  0  0  0  0  0  0  0  0  0  0
    1.5926   -1.5228    4.7879 H   0  0  0  0  0  0  0  0  0  0  0  0
    1.1024    0.6071    4.5517 C   0  0  0  0  0  0  0  0  0  0  0  0
    2.0607    1.0800    4.3410 H   0  0  0  0  0  0  0  0  0  0  0  0
    0.9143    0.6888    5.6249 H   0  0  0  0  0  0  0  0  0  0  0  0
   -0.0649    1.2200    3.7809 C   0  0  0  0  0  0  0  0  0  0  0  0
    0.2094    1.3087    2.7274 H   0  0  0  0  0  0  0  0  0  0  0  0
   -0.3494    2.2111    4.1325 H   0  0  0  0  0  0  0  0  0  0  0  0
   -1.1819    0.1824    3.9519 C   0  0  0  0  0  0  0  0  0  0  0  0
   -1.9074    0.2060    3.1406 H   0  0  0  0  0  0  0  0  0  0  0  0
   -1.7260    0.3871    4.8742 H   0  0  0  0  0  0  0  0  0  0  0  0
   -0.4589   -1.1842    4.0556 C   0  0  0  0  0  0  0  0  0  0  0  0
   -0.7015   -1.8283    3.2122 H   0  0  0  0  0  0  0  0  0  0  0  0
   -0.7740   -1.7116    4.9547 H   0  0  0  0  0  0  0  0  0  0  0  0
  1  2  1  0  0  0  0
  3  1  1  0  0  0  0
  3  4  2  0  0  0  0
  5  3  1  0  0  0  0
  6  5  1  0  0  0  0
  7  9  1  0  0  0  0
  7  5  2  0  0  0  0
  8  7  1  0  0  0  0
  9 11  1  0  0  0  0
 10  9  1  0  0  0  0
 11 12  2  0  0  0  0
 11  1  1  0  0  0  0
 13 16  1  0  0  0  0
 13 15  1  0  0  0  0
 14 13  1  0  0  0  0
 16 18  1  0  0  0  0
 17 16  1  0  0  0  0
 19 22  1  0  0  0  0
 19 21  1  0  0  0  0
 19 16  1  0  0  0  0
 20 19  1  0  0  0  0
 22 25  1  0  0  0  0
 22 24  1  0  0  0  0
 23 22  1  0  0  0  0
 25 13  1  0  0  0  0
 25 27  1  0  0  0  0
 26 25  1  0  0  0  0
M  END
>  <SMILES>
[nH]1c(=O)cc[nH]c1=O.C1CCCC1

>  <MoleculeName>
UracilCyclopentane090

>  <Distance Scale>
0.9

>  <Energy Value>
-3.05

$$$$
/home/S66X8/2969_34PentanePentane150.xyz
 OpenBabel06262409173D

 34 32  0  0  0  0  0  0  0  0999 V2000
   -2.5333   -0.2949    0.7131 C   0  0  0  0  0  0  0  0  0  0  0  0
   -2.5636   -0.9771   -0.1364 H   0  0  0  0  0  0  0  0  0  0  0  0
   -2.5670   -0.8959    1.6217 H   0  0  0  0  0  0  0  0  0  0  0  0
   -3.4344    0.3160    0.6841 H   0  0  0  0  0  0  0  0  0  0  0  0
   -1.2719    0.5577    0.6744 C   0  0  0  0  0  0  0  0  0  0  0  0
   -1.2710    1.2566    1.5143 H   0  0  0  0  0  0  0  0  0  0  0  0
   -1.2666    1.1679   -0.2318 H   0  0  0  0  0  0  0  0  0  0  0  0
   -0.0001   -0.2784    0.7196 C   0  0  0  0  0  0  0  0  0  0  0  0
   -0.0002   -0.8872    1.6286 H   0  0  0  0  0  0  0  0  0  0  0  0
   -0.0004   -0.9807   -0.1194 H   0  0  0  0  0  0  0  0  0  0  0  0
    1.2719    0.5574    0.6741 C   0  0  0  0  0  0  0  0  0  0  0  0
    1.2710    1.2566    1.5137 H   0  0  0  0  0  0  0  0  0  0  0  0
    1.2666    1.1672   -0.2324 H   0  0  0  0  0  0  0  0  0  0  0  0
    2.5334   -0.2949    0.7133 C   0  0  0  0  0  0  0  0  0  0  0  0
    2.5639   -0.9778   -0.1358 H   0  0  0  0  0  0  0  0  0  0  0  0
    3.4343    0.3163    0.6836 H   0  0  0  0  0  0  0  0  0  0  0  0
    2.5676   -0.8952    1.6223 H   0  0  0  0  0  0  0  0  0  0  0  0
    2.5336    0.2666    5.9102 C   0  0  0  0  0  0  0  0  0  0  0  0
    2.5681    0.8664    5.0009 H   0  0  0  0  0  0  0  0  0  0  0  0
    2.5641    0.9498    6.7590 H   0  0  0  0  0  0  0  0  0  0  0  0
    3.4342   -0.3449    5.9404 H   0  0  0  0  0  0  0  0  0  0  0  0
    1.2717   -0.5853    5.9495 C   0  0  0  0  0  0  0  0  0  0  0  0
    1.2663   -1.1951    6.8560 H   0  0  0  0  0  0  0  0  0  0  0  0
    1.2706   -1.2847    5.1100 H   0  0  0  0  0  0  0  0  0  0  0  0
   -0.0000    0.2508    5.9039 C   0  0  0  0  0  0  0  0  0  0  0  0
   -0.0002    0.9531    6.7429 H   0  0  0  0  0  0  0  0  0  0  0  0
    0.0000    0.8595    4.9948 H   0  0  0  0  0  0  0  0  0  0  0  0
   -1.2718   -0.5854    5.9492 C   0  0  0  0  0  0  0  0  0  0  0  0
   -1.2664   -1.1955    6.8554 H   0  0  0  0  0  0  0  0  0  0  0  0
   -1.2707   -1.2844    5.1093 H   0  0  0  0  0  0  0  0  0  0  0  0
   -2.5335    0.2667    5.9102 C   0  0  0  0  0  0  0  0  0  0  0  0
   -2.5677    0.8672    5.0013 H   0  0  0  0  0  0  0  0  0  0  0  0
   -3.4343   -0.3446    5.9397 H   0  0  0  0  0  0  0  0  0  0  0  0
   -2.5641    0.9493    6.7595 H   0  0  0  0  0  0  0  0  0  0  0  0
  1  3  1  0  0  0  0
  2  1  1  0  0  0  0
  4  1  1  0  0  0  0
  5  1  1  0  0  0  0
  5  8  1  0  0  0  0
  5  6  1  0  0  0  0
  7  5  1  0  0  0  0
  8  9  1  0  0  0  0
 10  8  1  0  0  0  0
 11 14  1  0  0  0  0
 11  8  1  0  0  0  0
 11 12  1  0  0  0  0
 13 11  1  0  0  0  0
 14 17  1  0  0  0  0
 15 14  1  0  0  0  0
 16 14  1  0  0  0  0
 18 21  1  0  0  0  0
 18 22  1  0  0  0  0
 18 20  1  0  0  0  0
 19 18  1  0  0  0  0
 22 23  1  0  0  0  0
 24 22  1  0  0  0  0
 25 28  1  0  0  0  0
 25 22  1  0  0  0  0
 25 26  1  0  0  0  0
 27 25  1  0  0  0  0
 28 29  1  0  0  0  0
 30 28  1  0  0  0  0
 31 33  1  0  0  0  0
 31 28  1  0  0  0  0
 31 34  1  0  0  0  0
 32 31  1  0  0  0  0
M  END
>  <SMILES>
CCCCC.CCCCC

>  <MoleculeName>
PentanePentane150

>  <Distance Scale>
1.5

>  <Energy Value>
-1.05

$$$$
/home/S66X8/3111_52BenzeneAcOHOHpi110.xyz
 OpenBabel06262409173D

 20 19  0  0  0  0  0  0  0  0999 V2000
    0.9641    0.8751    0.3780 C   0  0  0  0  0  0  0  0  0  0  0  0
    1.6598    1.6999    0.4460 H   0  0  0  0  0  0  0  0  0  0  0  0
    1.4311   -0.4131    0.1190 C   0  0  0  0  0  0  0  0  0  0  0  0
    2.4895   -0.5872   -0.0170 H   0  0  0  0  0  0  0  0  0  0  0  0
    0.5341   -1.4776    0.0424 C   0  0  0  0  0  0  0  0  0  0  0  0
    0.8970   -2.4774   -0.1520 H   0  0  0  0  0  0  0  0  0  0  0  0
   -0.8303   -1.2536    0.2209 C   0  0  0  0  0  0  0  0  0  0  0  0
   -1.5258   -2.0796    0.1641 H   0  0  0  0  0  0  0  0  0  0  0  0
   -1.2976    0.0344    0.4802 C   0  0  0  0  0  0  0  0  0  0  0  0
   -2.3544    0.2080    0.6286 H   0  0  0  0  0  0  0  0  0  0  0  0
   -0.4004    1.0998    0.5616 C   0  0  0  0  0  0  0  0  0  0  0  0
   -0.7605    2.0938    0.7848 H   0  0  0  0  0  0  0  0  0  0  0  0
   -0.0990    0.4924    4.6424 C   0  0  0  0  0  0  0  0  0  0  0  0
   -0.5672    1.5418    4.2632 O   0  0  0  0  0  0  0  0  0  0  0  0
    0.3042   -0.4852    3.8031 O   0  0  0  0  0  0  0  0  0  0  0  0
    0.1355   -0.1593    2.9017 H   0  0  0  0  0  0  0  0  0  0  0  0
    0.1110    0.0954    6.0738 C   0  0  0  0  0  0  0  0  0  0  0  0
   -0.1990    0.9047    6.7238 H   0  0  0  0  0  0  0  0  0  0  0  0
   -0.4651   -0.8012    6.2908 H   0  0  0  0  0  0  0  0  0  0  0  0
    1.1595   -0.1408    6.2389 H   0  0  0  0  0  0  0  0  0  0  0  0
  1  2  1  0  0  0  0
  1 11  1  0  0  0  0
  3  1  2  0  0  0  0
  4  3  1  0  0  0  0
  5  3  1  0  0  0  0
  5  7  2  0  0  0  0
  6  5  1  0  0  0  0
  7  9  1  0  0  0  0
  8  7  1  0  0  0  0
  9 11  2  0  0  0  0
  9 10  1  0  0  0  0
 11 12  1  0  0  0  0
 13 17  1  0  0  0  0
 14 13  2  0  0  0  0
 15 13  1  0  0  0  0
 16 15  1  0  0  0  0
 17 20  1  0  0  0  0
 17 19  1  0  0  0  0
 17 18  1  0  0  0  0
M  END
>  <SMILES>
c1ccccc1.C(=O)(O)C

>  <MoleculeName>
BenzeneAcOHOHpi110

>  <Distance Scale>
1.1

>  <Energy Value>
-4.25

$$$$
/home/S66X8/3226_66MeNH2Pyridine200.xyz
 OpenBabel06262409173D

 18 17  0  0  0  0  0  0  0  0999 V2000
   -0.5411    0.0296   -0.2090 N   0  0  0  0  0  0  0  0  0  0  0  0
    0.0556   -0.7861   -0.1303 H   0  0  0  0  0  0  0  0  0  0  0  0
   -1.4697   -0.2747    0.0531 H   0  0  0  0  0  0  0  0  0  0  0  0
   -0.0788    1.0424    0.7385 C   0  0  0  0  0  0  0  0  0  0  0  0
   -0.7202    1.9194    0.6720 H   0  0  0  0  0  0  0  0  0  0  0  0
   -0.0508    0.7238    1.7855 H   0  0  0  0  0  0  0  0  0  0  0  0
    0.9264    1.3566    0.4620 H   0  0  0  0  0  0  0  0  0  0  0  0
    4.6802   -1.7382    0.1943 N   0  0  0  0  0  0  0  0  0  0  0  0
    5.0187   -0.9259   -0.8175 C   0  0  0  0  0  0  0  0  0  0  0  0
    4.4760   -1.0704   -1.7428 H   0  0  0  0  0  0  0  0  0  0  0  0
    5.9900    0.0663   -0.7171 C   0  0  0  0  0  0  0  0  0  0  0  0
    6.2148    0.6906   -1.5699 H   0  0  0  0  0  0  0  0  0  0  0  0
    6.6508    0.2358    0.4952 C   0  0  0  0  0  0  0  0  0  0  0  0
    7.4087    0.9981    0.6116 H   0  0  0  0  0  0  0  0  0  0  0  0
    6.3107   -0.5991    1.5543 C   0  0  0  0  0  0  0  0  0  0  0  0
    6.7933   -0.5087    2.5170 H   0  0  0  0  0  0  0  0  0  0  0  0
    5.3269   -1.5639    1.3551 C   0  0  0  0  0  0  0  0  0  0  0  0
    5.0408   -2.2277    2.1617 H   0  0  0  0  0  0  0  0  0  0  0  0
  1  2  1  0  0  0  0
  1  3  1  0  0  0  0
  1  4  1  0  0  0  0
  4  6  1  0  0  0  0
  5  4  1  0  0  0  0
  7  4  1  0  0  0  0
  8 17  1  0  0  0  0
  9 11  1  0  0  0  0
  9  8  2  0  0  0  0
 10  9  1  0  0  0  0
 11 13  2  0  0  0  0
 12 11  1  0  0  0  0
 13 14  1  0  0  0  0
 13 15  1  0  0  0  0
 15 16  1  0  0  0  0
 17 15  2  0  0  0  0
 17 18  1  0  0  0  0
M  END
>  <SMILES>
NC.n1ccccc1

>  <MoleculeName>
MeNH2Pyridine200

>  <Distance Scale>
2.0

>  <Energy Value>
-0.49

$$$$
/home/S66X8/2846_19MeOHPyridine105.xyz
 OpenBabel06262409173D

 17 16  0  0  0  0  0  0  0  0999 V2000
   -0.6277    0.0875    0.0015 O   0  0  0  0  0  0  0  0  0  0  0  0
    0.3436    0.1223   -0.0006 H   0  0  0  0  0  0  0  0  0  0  0  0
   -0.9779   -1.2786    0.0012 C   0  0  0  0  0  0  0  0  0  0  0  0
   -2.0634   -1.3420    0.0050 H   0  0  0  0  0  0  0  0  0  0  0  0
   -0.6149   -1.8064   -0.8854 H   0  0  0  0  0  0  0  0  0  0  0  0
   -0.6086   -1.8082    0.8842 H   0  0  0  0  0  0  0  0  0  0  0  0
    2.3910    0.0099   -0.0017 N   0  0  0  0  0  0  0  0  0  0  0  0
    3.0874   -0.0145   -1.1464 C   0  0  0  0  0  0  0  0  0  0  0  0
    2.5029    0.0087   -2.0574 H   0  0  0  0  0  0  0  0  0  0  0  0
    4.4771   -0.0643   -1.1951 C   0  0  0  0  0  0  0  0  0  0  0  0
    4.9844   -0.0816   -2.1489 H   0  0  0  0  0  0  0  0  0  0  0  0
    5.1874   -0.0900    0.0005 C   0  0  0  0  0  0  0  0  0  0  0  0
    6.2678   -0.1277    0.0014 H   0  0  0  0  0  0  0  0  0  0  0  0
    4.4752   -0.0650    1.1951 C   0  0  0  0  0  0  0  0  0  0  0  0
    4.9810   -0.0828    2.1495 H   0  0  0  0  0  0  0  0  0  0  0  0
    3.0856   -0.0152    1.1441 C   0  0  0  0  0  0  0  0  0  0  0  0
    2.4996    0.0075    2.0542 H   0  0  0  0  0  0  0  0  0  0  0  0
  2  1  1  0  0  0  0
  3  1  1  0  0  0  0
  3  4  1  0  0  0  0
  3  6  1  0  0  0  0
  5  3  1  0  0  0  0
  7 16  1  0  0  0  0
  8  7  2  0  0  0  0
  9  8  1  0  0  0  0
 10  8  1  0  0  0  0
 10 12  2  0  0  0  0
 11 10  1  0  0  0  0
 12 13  1  0  0  0  0
 12 14  1  0  0  0  0
 14 15  1  0  0  0  0
 16 14  2  0  0  0  0
 16 17  1  0  0  0  0
M  END
>  <SMILES>
OC.n1ccccc1

>  <MoleculeName>
MeOHPyridine105

>  <Distance Scale>
1.05

>  <Energy Value>
-7.23

$$$$
/home/S66X8/2821_16PeptideWater100.xyz
 OpenBabel06262409173D

 15 13  0  0  0  0  0  0  0  0999 V2000
   -0.7243   -0.7049    2.2839 C   0  0  0  0  0  0  0  0  0  0  0  0
    0.3353   -0.6299    2.0532 H   0  0  0  0  0  0  0  0  0  0  0  0
   -0.9517   -1.7120    2.6257 H   0  0  0  0  0  0  0  0  0  0  0  0
   -0.9696   -0.0221    3.0938 H   0  0  0  0  0  0  0  0  0  0  0  0
   -1.6149   -0.3874    1.1041 C   0  0  0  0  0  0  0  0  0  0  0  0
   -2.8373   -0.4150    1.1941 O   0  0  0  0  0  0  0  0  0  0  0  0
   -0.9534   -0.0764   -0.0408 N   0  0  0  0  0  0  0  0  0  0  0  0
    0.0538   -0.0756   -0.0366 H   0  0  0  0  0  0  0  0  0  0  0  0
   -1.6581    0.2501   -1.2586 C   0  0  0  0  0  0  0  0  0  0  0  0
   -2.7204    0.1769   -1.0467 H   0  0  0  0  0  0  0  0  0  0  0  0
   -1.4303    1.2630   -1.5881 H   0  0  0  0  0  0  0  0  0  0  0  0
   -1.4056   -0.4443   -2.0586 H   0  0  0  0  0  0  0  0  0  0  0  0
    2.1311   -0.0582   -0.1567 O   0  0  0  0  0  0  0  0  0  0  0  0
    2.6961   -0.7711   -0.4619 H   0  0  0  0  0  0  0  0  0  0  0  0
    2.7109    0.7060   -0.1328 H   0  0  0  0  0  0  0  0  0  0  0  0
  1  3  1  0  0  0  0
  1  4  1  0  0  0  0
  2  1  1  0  0  0  0
  5  6  2  0  0  0  0
  5  1  1  0  0  0  0
  7  8  1  0  0  0  0
  7  5  1  0  0  0  0
  9 10  1  0  0  0  0
  9  7  1  0  0  0  0
 11  9  1  0  0  0  0
 12  9  1  0  0  0  0
 13 15  1  0  0  0  0
 14 13  1  0  0  0  0
M  END
>  <SMILES>
CC(=O)NC.O

>  <MoleculeName>
PeptideWater100

>  <Distance Scale>
1.0

>  <Energy Value>
-5.12

$$$$
/home/S66X8/3076_48PyridinePyridineTS095.xyz
 OpenBabel06262409173D

 22 22  0  0  0  0  0  0  0  0999 V2000
    1.3228   -0.0104    1.0192 N   0  0  0  0  0  0  0  0  0  0  0  0
    0.6513   -1.1490    0.7968 C   0  0  0  0  0  0  0  0  0  0  0  0
    1.2004   -2.0655    0.9737 H   0  0  0  0  0  0  0  0  0  0  0  0
   -0.6727   -1.1947    0.3667 C   0  0  0  0  0  0  0  0  0  0  0  0
   -1.1572   -2.1473    0.2065 H   0  0  0  0  0  0  0  0  0  0  0  0
   -1.3472    0.0031    0.1521 C   0  0  0  0  0  0  0  0  0  0  0  0
   -2.3754    0.0084   -0.1823 H   0  0  0  0  0  0  0  0  0  0  0  0
   -0.6646    1.1941    0.3790 C   0  0  0  0  0  0  0  0  0  0  0  0
   -1.1426    2.1516    0.2287 H   0  0  0  0  0  0  0  0  0  0  0  0
    0.6589    1.1350    0.8089 C   0  0  0  0  0  0  0  0  0  0  0  0
    1.2141    2.0459    0.9954 H   0  0  0  0  0  0  0  0  0  0  0  0
    0.4970    0.0022    6.6221 N   0  0  0  0  0  0  0  0  0  0  0  0
    1.3677   -0.0034    5.6027 C   0  0  0  0  0  0  0  0  0  0  0  0
    2.4156   -0.0021    5.8770 H   0  0  0  0  0  0  0  0  0  0  0  0
    0.9943   -0.0104    4.2609 C   0  0  0  0  0  0  0  0  0  0  0  0
    1.7418   -0.0146    3.4798 H   0  0  0  0  0  0  0  0  0  0  0  0
   -0.3617   -0.0119    3.9485 C   0  0  0  0  0  0  0  0  0  0  0  0
   -0.6915   -0.0173    2.9182 H   0  0  0  0  0  0  0  0  0  0  0  0
   -1.2798   -0.0061    4.9936 C   0  0  0  0  0  0  0  0  0  0  0  0
   -2.3443   -0.0070    4.8049 H   0  0  0  0  0  0  0  0  0  0  0  0
   -0.8042    0.0008    6.3026 C   0  0  0  0  0  0  0  0  0  0  0  0
   -1.4964    0.0054    7.1358 H   0  0  0  0  0  0  0  0  0  0  0  0
  2  3  1  0  0  0  0
  2  1  2  0  0  0  0
  4  2  1  0  0  0  0
  5  4  1  0  0  0  0
  6  4  2  0  0  0  0
  6  8  1  0  0  0  0
  7  6  1  0  0  0  0
  8 10  2  0  0  0  0
  9  8  1  0  0  0  0
 10 11  1  0  0  0  0
 10  1  1  0  0  0  0
 13 14  1  0  0  0  0
 13 12  2  0  0  0  0
 15 13  1  0  0  0  0
 16 15  1  0  0  0  0
 17 15  2  0  0  0  0
 17 19  1  0  0  0  0
 18 17  1  0  0  0  0
 19 21  2  0  0  0  0
 20 19  1  0  0  0  0
 21 12  1  0  0  0  0
 21 22  1  0  0  0  0
M  END
>  <SMILES>
n1ccccc1.n1ccccc1

>  <MoleculeName>
PyridinePyridineTS095

>  <Distance Scale>
0.95

>  <Energy Value>
-3.31

$$$$
/home/S66X8/2910_27BenzenePyridinepipi105.xyz
 OpenBabel06262409173D

 23 23  0  0  0  0  0  0  0  0999 V2000
    0.8187    0.8642    0.1883 C   0  0  0  0  0  0  0  0  0  0  0  0
    1.4661    1.7167    0.3447 H   0  0  0  0  0  0  0  0  0  0  0  0
    1.3690   -0.3905   -0.0667 C   0  0  0  0  0  0  0  0  0  0  0  0
    2.4430   -0.5119   -0.1106 H   0  0  0  0  0  0  0  0  0  0  0  0
    0.5344   -1.4885   -0.2719 C   0  0  0  0  0  0  0  0  0  0  0  0
    0.9608   -2.4616   -0.4755 H   0  0  0  0  0  0  0  0  0  0  0  0
   -0.8491   -1.3305   -0.2199 C   0  0  0  0  0  0  0  0  0  0  0  0
   -1.4971   -2.1819   -0.3796 H   0  0  0  0  0  0  0  0  0  0  0  0
   -1.3995   -0.0760    0.0404 C   0  0  0  0  0  0  0  0  0  0  0  0
   -2.4727    0.0449    0.0934 H   0  0  0  0  0  0  0  0  0  0  0  0
   -0.5653    1.0214    0.2423 C   0  0  0  0  0  0  0  0  0  0  0  0
   -0.9926    1.9937    0.4463 H   0  0  0  0  0  0  0  0  0  0  0  0
   -2.4205    0.1730    3.6007 N   0  0  0  0  0  0  0  0  0  0  0  0
   -1.8056    1.3306    3.8808 C   0  0  0  0  0  0  0  0  0  0  0  0
   -2.4532    2.1838    4.0433 H   0  0  0  0  0  0  0  0  0  0  0  0
   -0.4234    1.4715    3.9710 C   0  0  0  0  0  0  0  0  0  0  0  0
    0.0084    2.4351    4.2022 H   0  0  0  0  0  0  0  0  0  0  0  0
    0.3775    0.3545    3.7568 C   0  0  0  0  0  0  0  0  0  0  0  0
    1.4551    0.4249    3.8116 H   0  0  0  0  0  0  0  0  0  0  0  0
   -0.2430   -0.8542    3.4631 C   0  0  0  0  0  0  0  0  0  0  0  0
    0.3328   -1.7498    3.2790 H   0  0  0  0  0  0  0  0  0  0  0  0
   -1.6335   -0.8922    3.3977 C   0  0  0  0  0  0  0  0  0  0  0  0
   -2.1424   -1.8207    3.1688 H   0  0  0  0  0  0  0  0  0  0  0  0
  1 11  1  0  0  0  0
  1  2  1  0  0  0  0
  3  1  2  0  0  0  0
  4  3  1  0  0  0  0
  5  7  2  0  0  0  0
  5  3  1  0  0  0  0
  6  5  1  0  0  0  0
  7  9  1  0  0  0  0
  8  7  1  0  0  0  0
  9 10  1  0  0  0  0
  9 11  2  0  0  0  0
 11 12  1  0  0  0  0
 13 14  1  0  0  0  0
 14 16  2  0  0  0  0
 14 15  1  0  0  0  0
 16 17  1  0  0  0  0
 18 19  1  0  0  0  0
 18 16  1  0  0  0  0
 20 18  2  0  0  0  0
 21 20  1  0  0  0  0
 22 20  1  0  0  0  0
 22 13  2  0  0  0  0
 23 22  1  0  0  0  0
M  END
>  <SMILES>
c1ccccc1.n1ccccc1

>  <MoleculeName>
BenzenePyridinepipi105

>  <Distance Scale>
1.05

>  <Energy Value>
-3.4

$$$$
/home/S66X8/2873_22AcOHUracil150.xyz
 OpenBabel06262409173D

 20 19  0  0  0  0  0  0  0  0999 V2000
   -1.1136    1.3270    0.2752 C   0  0  0  0  0  0  0  0  0  0  0  0
   -0.4671    2.3494    0.4615 O   0  0  0  0  0  0  0  0  0  0  0  0
   -0.5781    0.1369    0.0496 O   0  0  0  0  0  0  0  0  0  0  0  0
    0.4133    0.2033    0.0555 H   0  0  0  0  0  0  0  0  0  0  0  0
   -2.6114    1.2862    0.2774 C   0  0  0  0  0  0  0  0  0  0  0  0
   -3.0066    2.2769    0.4658 H   0  0  0  0  0  0  0  0  0  0  0  0
   -2.9643    0.9153   -0.6820 H   0  0  0  0  0  0  0  0  0  0  0  0
   -2.9531    0.5918    1.0412 H   0  0  0  0  0  0  0  0  0  0  0  0
    5.0493    1.1097    0.1796 N   0  0  0  0  0  0  0  0  0  0  0  0
    5.4425    0.1943    0.0079 H   0  0  0  0  0  0  0  0  0  0  0  0
    5.9708    2.1578    0.3611 C   0  0  0  0  0  0  0  0  0  0  0  0
    7.1680    1.9395    0.3082 O   0  0  0  0  0  0  0  0  0  0  0  0
    5.3318    3.4372    0.6017 C   0  0  0  0  0  0  0  0  0  0  0  0
    5.9513    4.3042    0.7532 H   0  0  0  0  0  0  0  0  0  0  0  0
    3.9847    3.5172    0.6311 C   0  0  0  0  0  0  0  0  0  0  0  0
    3.4619    4.4457    0.8064 H   0  0  0  0  0  0  0  0  0  0  0  0
    3.1810    2.4266    0.4407 N   0  0  0  0  0  0  0  0  0  0  0  0
    2.1569    2.4965    0.4645 H   0  0  0  0  0  0  0  0  0  0  0  0
    3.6809    1.1763    0.2065 C   0  0  0  0  0  0  0  0  0  0  0  0
    2.9689    0.1868    0.0330 O   0  0  0  0  0  0  0  0  0  0  0  0
  1  5  1  0  0  0  0
  1  2  2  0  0  0  0
  3  4  1  0  0  0  0
  3  1  1  0  0  0  0
  5  6  1  0  0  0  0
  5  8  1  0  0  0  0
  7  5  1  0  0  0  0
  9 19  1  0  0  0  0
  9 11  1  0  0  0  0
 10  9  1  0  0  0  0
 11 13  1  0  0  0  0
 12 11  2  0  0  0  0
 13 15  2  0  0  0  0
 13 14  1  0  0  0  0
 15 16  1  0  0  0  0
 17 18  1  0  0  0  0
 17 15  1  0  0  0  0
 19 17  1  0  0  0  0
 20 19  2  0  0  0  0
M  END
>  <SMILES>
C(=O)(O)C.[nH]1c(=O)cc[nH]c1=O

>  <MoleculeName>
AcOHUracil150

>  <Distance Scale>
1.5

>  <Energy Value>
-9.86

$$$$
/home/S66X8/2824_16PeptideWater125.xyz
 OpenBabel06262409173D

 15 13  0  0  0  0  0  0  0  0999 V2000
   -0.7243   -0.7049    2.2839 C   0  0  0  0  0  0  0  0  0  0  0  0
    0.3353   -0.6299    2.0532 H   0  0  0  0  0  0  0  0  0  0  0  0
   -0.9517   -1.7120    2.6257 H   0  0  0  0  0  0  0  0  0  0  0  0
   -0.9696   -0.0221    3.0938 H   0  0  0  0  0  0  0  0  0  0  0  0
   -1.6149   -0.3874    1.1041 C   0  0  0  0  0  0  0  0  0  0  0  0
   -2.8373   -0.4150    1.1941 O   0  0  0  0  0  0  0  0  0  0  0  0
   -0.9534   -0.0764   -0.0408 N   0  0  0  0  0  0  0  0  0  0  0  0
    0.0538   -0.0756   -0.0366 H   0  0  0  0  0  0  0  0  0  0  0  0
   -1.6581    0.2501   -1.2586 C   0  0  0  0  0  0  0  0  0  0  0  0
   -2.7204    0.1769   -1.0467 H   0  0  0  0  0  0  0  0  0  0  0  0
   -1.4303    1.2630   -1.5881 H   0  0  0  0  0  0  0  0  0  0  0  0
   -1.4056   -0.4443   -2.0586 H   0  0  0  0  0  0  0  0  0  0  0  0
    2.6506   -0.0538   -0.1867 O   0  0  0  0  0  0  0  0  0  0  0  0
    3.2155   -0.7668   -0.4919 H   0  0  0  0  0  0  0  0  0  0  0  0
    3.2303    0.7104   -0.1628 H   0  0  0  0  0  0  0  0  0  0  0  0
  1  3  1  0  0  0  0
  1  4  1  0  0  0  0
  2  1  1  0  0  0  0
  5  6  2  0  0  0  0
  5  1  1  0  0  0  0
  7  8  1  0  0  0  0
  7  5  1  0  0  0  0
  9 10  1  0  0  0  0
  9  7  1  0  0  0  0
 11  9  1  0  0  0  0
 12  9  1  0  0  0  0
 13 15  1  0  0  0  0
 14 13  1  0  0  0  0
M  END
>  <SMILES>
CC(=O)NC.O

>  <MoleculeName>
PeptideWater125

>  <Distance Scale>
1.25

>  <Energy Value>
-3.79

$$$$
/home/S66X8/2860_21AcNH2AcNH2095.xyz
 OpenBabel06262409173D

 18 16  0  0  0  0  0  0  0  0999 V2000
   -1.3097    1.1802   -0.0252 C   0  0  0  0  0  0  0  0  0  0  0  0
   -0.7253    2.1551    0.4527 O   0  0  0  0  0  0  0  0  0  0  0  0
   -0.6656    0.0951   -0.4920 N   0  0  0  0  0  0  0  0  0  0  0  0
    0.3546    0.0514   -0.4593 H   0  0  0  0  0  0  0  0  0  0  0  0
   -1.1836   -0.6736   -0.8708 H   0  0  0  0  0  0  0  0  0  0  0  0
   -2.8167    1.1560   -0.1106 C   0  0  0  0  0  0  0  0  0  0  0  0
   -3.2206    1.2625    0.8931 H   0  0  0  0  0  0  0  0  0  0  0  0
   -3.2094    0.2486   -0.5619 H   0  0  0  0  0  0  0  0  0  0  0  0
   -3.1432    2.0166   -0.6889 H   0  0  0  0  0  0  0  0  0  0  0  0
    2.7012    1.0623    0.1295 C   0  0  0  0  0  0  0  0  0  0  0  0
    2.1168    0.0882   -0.3503 O   0  0  0  0  0  0  0  0  0  0  0  0
    2.0572    2.1470    0.5973 N   0  0  0  0  0  0  0  0  0  0  0  0
    1.0371    2.1914    0.5630 H   0  0  0  0  0  0  0  0  0  0  0  0
    2.5752    2.9150    0.9774 H   0  0  0  0  0  0  0  0  0  0  0  0
    4.2082    1.0865    0.2147 C   0  0  0  0  0  0  0  0  0  0  0  0
    4.6001    1.9862    0.6819 H   0  0  0  0  0  0  0  0  0  0  0  0
    4.6118    0.9990   -0.7911 H   0  0  0  0  0  0  0  0  0  0  0  0
    4.5360    0.2160    0.7769 H   0  0  0  0  0  0  0  0  0  0  0  0
  1  2  2  0  0  0  0
  3  4  1  0  0  0  0
  3  1  1  0  0  0  0
  5  3  1  0  0  0  0
  6  1  1  0  0  0  0
  6  7  1  0  0  0  0
  8  6  1  0  0  0  0
  9  6  1  0  0  0  0
 10 15  1  0  0  0  0
 10 12  1  0  0  0  0
 11 10  2  0  0  0  0
 12 14  1  0  0  0  0
 13 12  1  0  0  0  0
 15 16  1  0  0  0  0
 15 18  1  0  0  0  0
 17 15  1  0  0  0  0
M  END
>  <SMILES>
C(=O)(N)C.C(=O)(N)C

>  <MoleculeName>
AcNH2AcNH2095

>  <Distance Scale>
0.95

>  <Energy Value>
-16.03

$$$$
/home/S66X8/3000_38CyclopentaneCyclopentane125.xyz
 OpenBabel06262409173D

 30 30  0  0  0  0  0  0  0  0999 V2000
    0.9569   -0.8918    1.1420 C   0  0  0  0  0  0  0  0  0  0  0  0
    1.5046   -1.2784    0.2834 H   0  0  0  0  0  0  0  0  0  0  0  0
    1.4214   -1.3148    2.0310 H   0  0  0  0  0  0  0  0  0  0  0  0
    0.9909    0.6585    1.1455 C   0  0  0  0  0  0  0  0  0  0  0  0
    1.5106    1.0231    0.2599 H   0  0  0  0  0  0  0  0  0  0  0  0
    1.5163    1.0598    2.0105 H   0  0  0  0  0  0  0  0  0  0  0  0
   -0.4795    1.1023    1.1039 C   0  0  0  0  0  0  0  0  0  0  0  0
   -0.6163    2.0649    0.6136 H   0  0  0  0  0  0  0  0  0  0  0  0
   -0.8747    1.1891    2.1181 H   0  0  0  0  0  0  0  0  0  0  0  0
   -1.1821   -0.0528    0.3933 C   0  0  0  0  0  0  0  0  0  0  0  0
   -0.9489   -0.0268   -0.6738 H   0  0  0  0  0  0  0  0  0  0  0  0
   -2.2657   -0.0336    0.5013 H   0  0  0  0  0  0  0  0  0  0  0  0
   -0.5307   -1.2749    1.0393 C   0  0  0  0  0  0  0  0  0  0  0  0
   -0.6904   -2.1970    0.4830 H   0  0  0  0  0  0  0  0  0  0  0  0
   -0.9508   -1.4154    2.0367 H   0  0  0  0  0  0  0  0  0  0  0  0
   -1.1156   -0.3509    5.8053 C   0  0  0  0  0  0  0  0  0  0  0  0
   -1.4487   -0.1142    4.7927 H   0  0  0  0  0  0  0  0  0  0  0  0
   -1.9204   -0.8940    6.2982 H   0  0  0  0  0  0  0  0  0  0  0  0
    0.1980   -1.1465    5.7575 C   0  0  0  0  0  0  0  0  0  0  0  0
    0.2480   -1.8042    4.8914 H   0  0  0  0  0  0  0  0  0  0  0  0
    0.2783   -1.7778    6.6419 H   0  0  0  0  0  0  0  0  0  0  0  0
    1.3273   -0.0838    5.7581 C   0  0  0  0  0  0  0  0  0  0  0  0
    1.9486   -0.1444    4.8662 H   0  0  0  0  0  0  0  0  0  0  0  0
    1.9848   -0.2337    6.6135 H   0  0  0  0  0  0  0  0  0  0  0  0
    0.6172    1.2779    5.8660 C   0  0  0  0  0  0  0  0  0  0  0  0
    0.4373    1.6864    4.8700 H   0  0  0  0  0  0  0  0  0  0  0  0
    1.1976    2.0123    6.4219 H   0  0  0  0  0  0  0  0  0  0  0  0
   -0.7249    0.9434    6.5158 C   0  0  0  0  0  0  0  0  0  0  0  0
   -1.4645    1.7359    6.4109 H   0  0  0  0  0  0  0  0  0  0  0  0
   -0.5848    0.7518    7.5823 H   0  0  0  0  0  0  0  0  0  0  0  0
  1  4  1  0  0  0  0
  1  3  1  0  0  0  0
  2  1  1  0  0  0  0
  4  6  1  0  0  0  0
  5  4  1  0  0  0  0
  7  4  1  0  0  0  0
  7  9  1  0  0  0  0
  8  7  1  0  0  0  0
 10 12  1  0  0  0  0
 10 13  1  0  0  0  0
 10  7  1  0  0  0  0
 11 10  1  0  0  0  0
 13  1  1  0  0  0  0
 13 15  1  0  0  0  0
 14 13  1  0  0  0  0
 16 18  1  0  0  0  0
 16 28  1  0  0  0  0
 17 16  1  0  0  0  0
 19 22  1  0  0  0  0
 19 16  1  0  0  0  0
 19 21  1  0  0  0  0
 20 19  1  0  0  0  0
 22 25  1  0  0  0  0
 22 24  1  0  0  0  0
 23 22  1  0  0  0  0
 25 27  1  0  0  0  0
 25 28  1  0  0  0  0
 26 25  1  0  0  0  0
 28 30  1  0  0  0  0
 29 28  1  0  0  0  0
M  END
>  <SMILES>
C1CCCC1.C1CCCC1

>  <MoleculeName>
CyclopentaneCyclopentane125

>  <Distance Scale>
1.25

>  <Energy Value>
-1.71

$$$$
/home/S66X8/2982_36NeopentaneNeopentane105.xyz
 OpenBabel06262409173D

 34 32  0  0  0  0  0  0  0  0999 V2000
    0.3825   -0.0706    0.7669 C   0  0  0  0  0  0  0  0  0  0  0  0
   -1.0406    0.3968    1.0609 C   0  0  0  0  0  0  0  0  0  0  0  0
   -1.7716   -0.2815    0.6183 H   0  0  0  0  0  0  0  0  0  0  0  0
   -1.2247    0.4357    2.1355 H   0  0  0  0  0  0  0  0  0  0  0  0
   -1.2141    1.3937    0.6531 H   0  0  0  0  0  0  0  0  0  0  0  0
    0.5908   -1.4668    1.3480 C   0  0  0  0  0  0  0  0  0  0  0  0
    1.6029   -1.8229    1.1501 H   0  0  0  0  0  0  0  0  0  0  0  0
    0.4390   -1.4667    2.4283 H   0  0  0  0  0  0  0  0  0  0  0  0
   -0.1099   -2.1787    0.9093 H   0  0  0  0  0  0  0  0  0  0  0  0
    1.3783    0.8984    1.3991 C   0  0  0  0  0  0  0  0  0  0  0  0
    2.4044    0.5854    1.2007 H   0  0  0  0  0  0  0  0  0  0  0  0
    1.2438    0.9460    2.4807 H   0  0  0  0  0  0  0  0  0  0  0  0
    1.2484    1.9050    0.9990 H   0  0  0  0  0  0  0  0  0  0  0  0
    0.6020   -0.1110   -0.7431 C   0  0  0  0  0  0  0  0  0  0  0  0
    0.4592    0.8770   -1.1829 H   0  0  0  0  0  0  0  0  0  0  0  0
    1.6137   -0.4435   -0.9797 H   0  0  0  0  0  0  0  0  0  0  0  0
   -0.0995   -0.7975   -1.2192 H   0  0  0  0  0  0  0  0  0  0  0  0
   -0.4041    0.0747    6.1663 C   0  0  0  0  0  0  0  0  0  0  0  0
    1.0187   -0.3943    5.8729 C   0  0  0  0  0  0  0  0  0  0  0  0
    1.2031   -0.4336    4.7984 H   0  0  0  0  0  0  0  0  0  0  0  0
    1.7501    0.2834    6.3156 H   0  0  0  0  0  0  0  0  0  0  0  0
    1.1909   -1.3913    6.2810 H   0  0  0  0  0  0  0  0  0  0  0  0
   -0.6105    1.4713    5.5855 C   0  0  0  0  0  0  0  0  0  0  0  0
   -1.6225    1.8282    5.7823 H   0  0  0  0  0  0  0  0  0  0  0  0
    0.0904    2.1823    6.0252 H   0  0  0  0  0  0  0  0  0  0  0  0
   -0.4574    1.4714    4.5053 H   0  0  0  0  0  0  0  0  0  0  0  0
   -0.6244    0.1149    7.6761 C   0  0  0  0  0  0  0  0  0  0  0  0
   -1.6356    0.4491    7.9122 H   0  0  0  0  0  0  0  0  0  0  0  0
    0.0781    0.7998    8.1530 H   0  0  0  0  0  0  0  0  0  0  0  0
   -0.4839   -0.8737    8.1156 H   0  0  0  0  0  0  0  0  0  0  0  0
   -1.4006   -0.8931    5.5331 C   0  0  0  0  0  0  0  0  0  0  0  0
   -1.2717   -1.9001    5.9327 H   0  0  0  0  0  0  0  0  0  0  0  0
   -2.4265   -0.5793    5.7315 H   0  0  0  0  0  0  0  0  0  0  0  0
   -1.2659   -0.9401    4.4516 H   0  0  0  0  0  0  0  0  0  0  0  0
  1  2  1  0  0  0  0
  1  6  1  0  0  0  0
  1 10  1  0  0  0  0
  2  4  1  0  0  0  0
  3  2  1  0  0  0  0
  5  2  1  0  0  0  0
  6  8  1  0  0  0  0
  7  6  1  0  0  0  0
  9  6  1  0  0  0  0
 10 12  1  0  0  0  0
 11 10  1  0  0  0  0
 13 10  1  0  0  0  0
 14  1  1  0  0  0  0
 15 14  1  0  0  0  0
 16 14  1  0  0  0  0
 17 14  1  0  0  0  0
 18 27  1  0  0  0  0
 19 18  1  0  0  0  0
 19 22  1  0  0  0  0
 19 21  1  0  0  0  0
 20 19  1  0  0  0  0
 23 24  1  0  0  0  0
 23 25  1  0  0  0  0
 23 18  1  0  0  0  0
 26 23  1  0  0  0  0
 27 28  1  0  0  0  0
 27 30  1  0  0  0  0
 27 29  1  0  0  0  0
 31 33  1  0  0  0  0
 31 32  1  0  0  0  0
 31 18  1  0  0  0  0
 34 31  1  0  0  0  0
M  END
>  <SMILES>
C(C)(C)(C)C.C(C)(C)(C)C

>  <MoleculeName>
NeopentaneNeopentane105

>  <Distance Scale>
1.05

>  <Energy Value>
-1.68

$$$$
/home/S66X8/2716_03WaterMeNH2095.xyz
 OpenBabel06262409173D

 10  8  0  0  0  0  0  0  0  0999 V2000
   -0.6875   -0.1117   -0.0196 O   0  0  0  0  0  0  0  0  0  0  0  0
   -1.0461    0.7759    0.0127 H   0  0  0  0  0  0  0  0  0  0  0  0
    0.2740    0.0259   -0.0035 H   0  0  0  0  0  0  0  0  0  0  0  0
    2.1840    0.1012    0.0056 N   0  0  0  0  0  0  0  0  0  0  0  0
    2.4794   -0.4514   -0.7892 H   0  0  0  0  0  0  0  0  0  0  0  0
    2.4941   -0.4095    0.8225 H   0  0  0  0  0  0  0  0  0  0  0  0
    2.8433    1.4096   -0.0346 C   0  0  0  0  0  0  0  0  0  0  0  0
    2.5328    1.9913    0.8299 H   0  0  0  0  0  0  0  0  0  0  0  0
    3.9346    1.3703   -0.0436 H   0  0  0  0  0  0  0  0  0  0  0  0
    2.5166    1.9455   -0.9225 H   0  0  0  0  0  0  0  0  0  0  0  0
  1  3  1  0  0  0  0
  1  2  1  0  0  0  0
  4  6  1  0  0  0  0
  5  4  1  0  0  0  0
  7  4  1  0  0  0  0
  7  8  1  0  0  0  0
  9  7  1  0  0  0  0
 10  7  1  0  0  0  0
M  END
>  <SMILES>
O.NC

>  <MoleculeName>
WaterMeNH2095

>  <Distance Scale>
0.95

>  <Energy Value>
-6.87

$$$$
/home/S66X8/3002_38CyclopentaneCyclopentane200.xyz
 OpenBabel06262409173D

 30 30  0  0  0  0  0  0  0  0999 V2000
    0.9569   -0.8918    1.1420 C   0  0  0  0  0  0  0  0  0  0  0  0
    1.5046   -1.2784    0.2834 H   0  0  0  0  0  0  0  0  0  0  0  0
    1.4214   -1.3148    2.0310 H   0  0  0  0  0  0  0  0  0  0  0  0
    0.9909    0.6585    1.1455 C   0  0  0  0  0  0  0  0  0  0  0  0
    1.5106    1.0231    0.2599 H   0  0  0  0  0  0  0  0  0  0  0  0
    1.5163    1.0598    2.0105 H   0  0  0  0  0  0  0  0  0  0  0  0
   -0.4795    1.1023    1.1039 C   0  0  0  0  0  0  0  0  0  0  0  0
   -0.6163    2.0649    0.6136 H   0  0  0  0  0  0  0  0  0  0  0  0
   -0.8747    1.1891    2.1181 H   0  0  0  0  0  0  0  0  0  0  0  0
   -1.1821   -0.0528    0.3933 C   0  0  0  0  0  0  0  0  0  0  0  0
   -0.9489   -0.0268   -0.6738 H   0  0  0  0  0  0  0  0  0  0  0  0
   -2.2657   -0.0336    0.5013 H   0  0  0  0  0  0  0  0  0  0  0  0
   -0.5307   -1.2749    1.0393 C   0  0  0  0  0  0  0  0  0  0  0  0
   -0.6904   -2.1970    0.4830 H   0  0  0  0  0  0  0  0  0  0  0  0
   -0.9508   -1.4154    2.0367 H   0  0  0  0  0  0  0  0  0  0  0  0
   -1.0720   -0.2634    7.7938 C   0  0  0  0  0  0  0  0  0  0  0  0
   -1.4052   -0.0267    6.7812 H   0  0  0  0  0  0  0  0  0  0  0  0
   -1.8768   -0.8065    8.2868 H   0  0  0  0  0  0  0  0  0  0  0  0
    0.2416   -1.0589    7.7460 C   0  0  0  0  0  0  0  0  0  0  0  0
    0.2915   -1.7167    6.8799 H   0  0  0  0  0  0  0  0  0  0  0  0
    0.3219   -1.6903    8.6304 H   0  0  0  0  0  0  0  0  0  0  0  0
    1.3709    0.0038    7.7466 C   0  0  0  0  0  0  0  0  0  0  0  0
    1.9922   -0.0569    6.8548 H   0  0  0  0  0  0  0  0  0  0  0  0
    2.0283   -0.1461    8.6020 H   0  0  0  0  0  0  0  0  0  0  0  0
    0.6607    1.3654    7.8545 C   0  0  0  0  0  0  0  0  0  0  0  0
    0.4809    1.7739    6.8585 H   0  0  0  0  0  0  0  0  0  0  0  0
    1.2411    2.0999    8.4105 H   0  0  0  0  0  0  0  0  0  0  0  0
   -0.6813    1.0310    8.5043 C   0  0  0  0  0  0  0  0  0  0  0  0
   -1.4210    1.8235    8.3994 H   0  0  0  0  0  0  0  0  0  0  0  0
   -0.5413    0.8393    9.5709 H   0  0  0  0  0  0  0  0  0  0  0  0
  1  4  1  0  0  0  0
  1  3  1  0  0  0  0
  2  1  1  0  0  0  0
  4  6  1  0  0  0  0
  5  4  1  0  0  0  0
  7  4  1  0  0  0  0
  7  9  1  0  0  0  0
  8  7  1  0  0  0  0
 10 12  1  0  0  0  0
 10 13  1  0  0  0  0
 10  7  1  0  0  0  0
 11 10  1  0  0  0  0
 13  1  1  0  0  0  0
 13 15  1  0  0  0  0
 14 13  1  0  0  0  0
 16 18  1  0  0  0  0
 16 28  1  0  0  0  0
 17 16  1  0  0  0  0
 19 22  1  0  0  0  0
 19 16  1  0  0  0  0
 19 21  1  0  0  0  0
 20 19  1  0  0  0  0
 22 25  1  0  0  0  0
 22 24  1  0  0  0  0
 23 22  1  0  0  0  0
 25 27  1  0  0  0  0
 25 28  1  0  0  0  0
 26 25  1  0  0  0  0
 28 30  1  0  0  0  0
 29 28  1  0  0  0  0
M  END
>  <SMILES>
C1CCCC1.C1CCCC1

>  <MoleculeName>
CyclopentaneCyclopentane200

>  <Distance Scale>
2.0

>  <Energy Value>
-0.2

$$$$
/home/S66X8/3146_56BenzeneMeNH2NHpi200.xyz
 OpenBabel06262409173D

 19 18  0  0  0  0  0  0  0  0999 V2000
    0.6923    1.0883    0.3248 C   0  0  0  0  0  0  0  0  0  0  0  0
    1.2819    1.9919    0.2525 H   0  0  0  0  0  0  0  0  0  0  0  0
    1.3182   -0.1569    0.2869 C   0  0  0  0  0  0  0  0  0  0  0  0
    2.3931   -0.2195    0.1884 H   0  0  0  0  0  0  0  0  0  0  0  0
    0.5580   -1.3220    0.3814 C   0  0  0  0  0  0  0  0  0  0  0  0
    1.0439   -2.2876    0.3576 H   0  0  0  0  0  0  0  0  0  0  0  0
   -0.8276   -1.2414    0.5117 C   0  0  0  0  0  0  0  0  0  0  0  0
   -1.4167   -2.1453    0.5853 H   0  0  0  0  0  0  0  0  0  0  0  0
   -1.4534    0.0037    0.5484 C   0  0  0  0  0  0  0  0  0  0  0  0
   -2.5282    0.0657    0.6498 H   0  0  0  0  0  0  0  0  0  0  0  0
   -0.6935    1.1684    0.4562 C   0  0  0  0  0  0  0  0  0  0  0  0
   -1.1787    2.1344    0.4857 H   0  0  0  0  0  0  0  0  0  0  0  0
   -0.0168   -0.4928    6.8318 N   0  0  0  0  0  0  0  0  0  0  0  0
    0.1178   -0.4488    5.8288 H   0  0  0  0  0  0  0  0  0  0  0  0
    0.1247    0.4523    7.1643 H   0  0  0  0  0  0  0  0  0  0  0  0
   -1.3929   -0.8992    7.1093 C   0  0  0  0  0  0  0  0  0  0  0  0
   -1.5508   -0.9278    8.1858 H   0  0  0  0  0  0  0  0  0  0  0  0
   -2.1642   -0.2588    6.6691 H   0  0  0  0  0  0  0  0  0  0  0  0
   -1.5476   -1.9088    6.7336 H   0  0  0  0  0  0  0  0  0  0  0  0
  1 11  1  0  0  0  0
  2  1  1  0  0  0  0
  3  1  2  0  0  0  0
  3  5  1  0  0  0  0
  4  3  1  0  0  0  0
  5  7  2  0  0  0  0
  6  5  1  0  0  0  0
  7  9  1  0  0  0  0
  7  8  1  0  0  0  0
  9 10  1  0  0  0  0
 11 12  1  0  0  0  0
 11  9  2  0  0  0  0
 13 16  1  0  0  0  0
 13 15  1  0  0  0  0
 14 13  1  0  0  0  0
 16 17  1  0  0  0  0
 18 16  1  0  0  0  0
 19 16  1  0  0  0  0
M  END
>  <SMILES>
c1ccccc1.NC

>  <MoleculeName>
BenzeneMeNH2NHpi200

>  <Distance Scale>
2.0

>  <Energy Value>
-0.26

$$$$
/home/S66X8/2897_25PyridinePyridinepipi150.xyz
 OpenBabel06262409173D

 22 22  0  0  0  0  0  0  0  0999 V2000
    1.5725    0.2545   -0.2565 N   0  0  0  0  0  0  0  0  0  0  0  0
    0.9694   -0.9032    0.0445 C   0  0  0  0  0  0  0  0  0  0  0  0
    1.6136   -1.7722    0.1023 H   0  0  0  0  0  0  0  0  0  0  0  0
   -0.3982   -1.0288    0.2810 C   0  0  0  0  0  0  0  0  0  0  0  0
   -0.8184   -1.9917    0.5336 H   0  0  0  0  0  0  0  0  0  0  0  0
   -1.1958    0.1066    0.1954 C   0  0  0  0  0  0  0  0  0  0  0  0
   -2.2607    0.0495    0.3734 H   0  0  0  0  0  0  0  0  0  0  0  0
   -0.5871    1.3174   -0.1201 C   0  0  0  0  0  0  0  0  0  0  0  0
   -1.1618    2.2295   -0.2005 H   0  0  0  0  0  0  0  0  0  0  0  0
    0.7885    1.3397   -0.3322 C   0  0  0  0  0  0  0  0  0  0  0  0
    1.2884    2.2688   -0.5785 H   0  0  0  0  0  0  0  0  0  0  0  0
   -0.7224   -1.6760    5.4912 N   0  0  0  0  0  0  0  0  0  0  0  0
   -1.6549   -0.7153    5.5651 C   0  0  0  0  0  0  0  0  0  0  0  0
   -2.6577   -1.0463    5.8073 H   0  0  0  0  0  0  0  0  0  0  0  0
   -1.3929    0.6357    5.3557 C   0  0  0  0  0  0  0  0  0  0  0  0
   -2.1914    1.3602    5.4340 H   0  0  0  0  0  0  0  0  0  0  0  0
   -0.0935    1.0250    5.0454 C   0  0  0  0  0  0  0  0  0  0  0  0
    0.1485    2.0640    4.8695 H   0  0  0  0  0  0  0  0  0  0  0  0
    0.8861    0.0421    4.9621 C   0  0  0  0  0  0  0  0  0  0  0  0
    1.9084    0.2888    4.7136 H   0  0  0  0  0  0  0  0  0  0  0  0
    0.5236   -1.2831    5.1952 C   0  0  0  0  0  0  0  0  0  0  0  0
    1.2675   -2.0686    5.1388 H   0  0  0  0  0  0  0  0  0  0  0  0
  1  2  1  0  0  0  0
  2  3  1  0  0  0  0
  2  4  2  0  0  0  0
  4  5  1  0  0  0  0
  6  4  1  0  0  0  0
  6  7  1  0  0  0  0
  8  6  2  0  0  0  0
  9  8  1  0  0  0  0
 10  1  2  0  0  0  0
 10  8  1  0  0  0  0
 11 10  1  0  0  0  0
 12 13  1  0  0  0  0
 13 14  1  0  0  0  0
 15 16  1  0  0  0  0
 15 13  2  0  0  0  0
 17 15  1  0  0  0  0
 18 17  1  0  0  0  0
 19 17  2  0  0  0  0
 19 21  1  0  0  0  0
 20 19  1  0  0  0  0
 21 12  2  0  0  0  0
 22 21  1  0  0  0  0
M  END
>  <SMILES>
n1ccccc1.n1ccccc1

>  <MoleculeName>
PyridinePyridinepipi150

>  <Distance Scale>
1.5

>  <Energy Value>
-0.96

$$$$
/home/S66X8/3016_40BenzeneNeopentane125.xyz
 OpenBabel06262409173D

 29 28  0  0  0  0  0  0  0  0999 V2000
    0.3120    0.5610    0.4967 C   0  0  0  0  0  0  0  0  0  0  0  0
    0.7421    1.5534    0.4816 H   0  0  0  0  0  0  0  0  0  0  0  0
    1.1422   -0.5581    0.5361 C   0  0  0  0  0  0  0  0  0  0  0  0
    2.2165   -0.4343    0.5524 H   0  0  0  0  0  0  0  0  0  0  0  0
    0.5878   -1.8367    0.5541 C   0  0  0  0  0  0  0  0  0  0  0  0
    1.2319   -2.7048    0.5852 H   0  0  0  0  0  0  0  0  0  0  0  0
   -0.7967   -1.9964    0.5330 C   0  0  0  0  0  0  0  0  0  0  0  0
   -1.2268   -2.9884    0.5486 H   0  0  0  0  0  0  0  0  0  0  0  0
   -1.6269   -0.8775    0.4942 C   0  0  0  0  0  0  0  0  0  0  0  0
   -2.7011   -1.0013    0.4798 H   0  0  0  0  0  0  0  0  0  0  0  0
   -1.0727    0.4012    0.4760 C   0  0  0  0  0  0  0  0  0  0  0  0
   -1.7170    1.2694    0.4459 H   0  0  0  0  0  0  0  0  0  0  0  0
    0.1385    0.4806    5.6267 C   0  0  0  0  0  0  0  0  0  0  0  0
    1.5847    0.6594    5.1717 C   0  0  0  0  0  0  0  0  0  0  0  0
    2.0006    1.5927    5.5551 H   0  0  0  0  0  0  0  0  0  0  0  0
    2.2081   -0.1612    5.5306 H   0  0  0  0  0  0  0  0  0  0  0  0
    1.6454    0.6788    4.0828 H   0  0  0  0  0  0  0  0  0  0  0  0
    0.0841    0.4492    7.1516 C   0  0  0  0  0  0  0  0  0  0  0  0
   -0.9417    0.3218    7.5006 H   0  0  0  0  0  0  0  0  0  0  0  0
    0.6795   -0.3765    7.5441 H   0  0  0  0  0  0  0  0  0  0  0  0
    0.4724    1.3771    7.5745 H   0  0  0  0  0  0  0  0  0  0  0  0
   -0.4109   -0.8289    5.0664 C   0  0  0  0  0  0  0  0  0  0  0  0
   -1.4458   -0.9792    5.3791 H   0  0  0  0  0  0  0  0  0  0  0  0
    0.1756   -1.6779    5.4222 H   0  0  0  0  0  0  0  0  0  0  0  0
   -0.3821   -0.8294    3.9761 H   0  0  0  0  0  0  0  0  0  0  0  0
   -0.7029    1.6452    5.1105 C   0  0  0  0  0  0  0  0  0  0  0  0
   -0.6813    1.6812    4.0205 H   0  0  0  0  0  0  0  0  0  0  0  0
   -1.7427    1.5414    5.4250 H   0  0  0  0  0  0  0  0  0  0  0  0
   -0.3272    2.5959    5.4926 H   0  0  0  0  0  0  0  0  0  0  0  0
  1  3  1  0  0  0  0
  2  1  1  0  0  0  0
  3  4  1  0  0  0  0
  3  5  2  0  0  0  0
  5  6  1  0  0  0  0
  7  8  1  0  0  0  0
  7  5  1  0  0  0  0
  9  7  2  0  0  0  0
 10  9  1  0  0  0  0
 11  9  1  0  0  0  0
 11  1  2  0  0  0  0
 12 11  1  0  0  0  0
 13 18  1  0  0  0  0
 14 16  1  0  0  0  0
 14 15  1  0  0  0  0
 14 13  1  0  0  0  0
 17 14  1  0  0  0  0
 18 19  1  0  0  0  0
 18 20  1  0  0  0  0
 18 21  1  0  0  0  0
 22 23  1  0  0  0  0
 22 24  1  0  0  0  0
 22 13  1  0  0  0  0
 25 22  1  0  0  0  0
 26 28  1  0  0  0  0
 26 29  1  0  0  0  0
 26 13  1  0  0  0  0
 27 26  1  0  0  0  0
M  END
>  <SMILES>
c1ccccc1.C(C)(C)(C)C

>  <MoleculeName>
BenzeneNeopentane125

>  <Distance Scale>
1.25

>  <Energy Value>
-1.7

$$$$
/home/S66X8/3051_45EthynePentane090.xyz
 OpenBabel06262409173D

 21 19  0  0  0  0  0  0  0  0999 V2000
   -0.6062    0.0559    0.5890 C   0  0  0  0  0  0  0  0  0  0  0  0
   -1.6680    0.0558    0.5890 H   0  0  0  0  0  0  0  0  0  0  0  0
    0.6058    0.0555    0.5893 C   0  0  0  0  0  0  0  0  0  0  0  0
    1.6677    0.0549    0.5897 H   0  0  0  0  0  0  0  0  0  0  0  0
   -2.5304   -0.3413    3.8896 C   0  0  0  0  0  0  0  0  0  0  0  0
   -2.5388   -1.0032    3.0232 H   0  0  0  0  0  0  0  0  0  0  0  0
   -2.5823   -0.9676    4.7802 H   0  0  0  0  0  0  0  0  0  0  0  0
   -3.4328    0.2676    3.8568 H   0  0  0  0  0  0  0  0  0  0  0  0
   -1.2699    0.5133    3.9007 C   0  0  0  0  0  0  0  0  0  0  0  0
   -1.2865    1.1863    4.7611 H   0  0  0  0  0  0  0  0  0  0  0  0
   -1.2446    1.1475    3.0119 H   0  0  0  0  0  0  0  0  0  0  0  0
    0.0000   -0.3250    3.9411 C   0  0  0  0  0  0  0  0  0  0  0  0
    0.0000   -0.9428    4.8442 H   0  0  0  0  0  0  0  0  0  0  0  0
    0.0001   -1.0133    3.0919 H   0  0  0  0  0  0  0  0  0  0  0  0
    1.2699    0.5134    3.9007 C   0  0  0  0  0  0  0  0  0  0  0  0
    1.2866    1.1863    4.7612 H   0  0  0  0  0  0  0  0  0  0  0  0
    1.2448    1.1475    3.0119 H   0  0  0  0  0  0  0  0  0  0  0  0
    2.5304   -0.3413    3.8898 C   0  0  0  0  0  0  0  0  0  0  0  0
    2.5388   -1.0033    3.0234 H   0  0  0  0  0  0  0  0  0  0  0  0
    3.4328    0.2677    3.8571 H   0  0  0  0  0  0  0  0  0  0  0  0
    2.5823   -0.9675    4.7804 H   0  0  0  0  0  0  0  0  0  0  0  0
  1  2  1  0  0  0  0
  1  3  3  0  0  0  0
  3  4  1  0  0  0  0
  5  9  1  0  0  0  0
  5  7  1  0  0  0  0
  6  5  1  0  0  0  0
  8  5  1  0  0  0  0
  9 12  1  0  0  0  0
  9 10  1  0  0  0  0
 11  9  1  0  0  0  0
 12 13  1  0  0  0  0
 14 12  1  0  0  0  0
 15 12  1  0  0  0  0
 15 16  1  0  0  0  0
 17 15  1  0  0  0  0
 18 15  1  0  0  0  0
 18 21  1  0  0  0  0
 19 18  1  0  0  0  0
 20 18  1  0  0  0  0
M  END
>  <SMILES>
C#C.CCCCC

>  <MoleculeName>
EthynePentane090

>  <Distance Scale>
0.9

>  <Energy Value>
-1.13

$$$$
/home/S66X8/2835_18WaterPyridine090.xyz
 OpenBabel06262409173D

 14 13  0  0  0  0  0  0  0  0999 V2000
   -0.5528   -0.1017   -0.0005 O   0  0  0  0  0  0  0  0  0  0  0  0
   -0.8718    0.8018    0.0001 H   0  0  0  0  0  0  0  0  0  0  0  0
    0.4127   -0.0018   -0.0003 H   0  0  0  0  0  0  0  0  0  0  0  0
    2.2064    0.0887    0.0001 N   0  0  0  0  0  0  0  0  0  0  0  0
    2.9024    0.0547    1.1449 C   0  0  0  0  0  0  0  0  0  0  0  0
    2.3177    0.0783    2.0557 H   0  0  0  0  0  0  0  0  0  0  0  0
    4.2914   -0.0105    1.1949 C   0  0  0  0  0  0  0  0  0  0  0  0
    4.7973   -0.0353    2.1492 H   0  0  0  0  0  0  0  0  0  0  0  0
    5.0025   -0.0436   -0.0001 C   0  0  0  0  0  0  0  0  0  0  0  0
    6.0824   -0.0954   -0.0001 H   0  0  0  0  0  0  0  0  0  0  0  0
    4.2912   -0.0105   -1.1949 C   0  0  0  0  0  0  0  0  0  0  0  0
    4.7970   -0.0354   -2.1493 H   0  0  0  0  0  0  0  0  0  0  0  0
    2.9022    0.0546   -1.1447 C   0  0  0  0  0  0  0  0  0  0  0  0
    2.3174    0.0782   -2.0555 H   0  0  0  0  0  0  0  0  0  0  0  0
  1  3  1  0  0  0  0
  1  2  1  0  0  0  0
  4  5  1  0  0  0  0
  5  7  2  0  0  0  0
  5  6  1  0  0  0  0
  7  8  1  0  0  0  0
  9  7  1  0  0  0  0
 10  9  1  0  0  0  0
 11 13  1  0  0  0  0
 11  9  2  0  0  0  0
 12 11  1  0  0  0  0
 13  4  2  0  0  0  0
 14 13  1  0  0  0  0
M  END
>  <SMILES>
O.n1ccccc1

>  <MoleculeName>
WaterPyridine090

>  <Distance Scale>
0.9

>  <Energy Value>
-6.39

$$$$
/home/S66X8/3125_54BenzeneWaterOHpi100.xyz
 OpenBabel06262409173D

 15 14  0  0  0  0  0  0  0  0999 V2000
    0.7801   -0.6099   -1.2076 C   0  0  0  0  0  0  0  0  0  0  0  0
    0.8962   -1.1376   -2.1441 H   0  0  0  0  0  0  0  0  0  0  0  0
    0.4779    0.7510   -1.2079 C   0  0  0  0  0  0  0  0  0  0  0  0
    0.3570    1.2782   -2.1441 H   0  0  0  0  0  0  0  0  0  0  0  0
    0.3273    1.4319   -0.0000 C   0  0  0  0  0  0  0  0  0  0  0  0
    0.0915    2.4871    0.0000 H   0  0  0  0  0  0  0  0  0  0  0  0
    0.4779    0.7510    1.2079 C   0  0  0  0  0  0  0  0  0  0  0  0
    0.3570    1.2782    2.1441 H   0  0  0  0  0  0  0  0  0  0  0  0
    0.7801   -0.6099    1.2076 C   0  0  0  0  0  0  0  0  0  0  0  0
    0.8962   -1.1376    2.1441 H   0  0  0  0  0  0  0  0  0  0  0  0
    0.9316   -1.2900    0.0000 C   0  0  0  0  0  0  0  0  0  0  0  0
    1.1685   -2.3452   -0.0000 H   0  0  0  0  0  0  0  0  0  0  0  0
   -2.7865   -0.2741   -0.0000 O   0  0  0  0  0  0  0  0  0  0  0  0
   -2.6217   -1.2188   -0.0000 H   0  0  0  0  0  0  0  0  0  0  0  0
   -1.8992    0.0975   -0.0000 H   0  0  0  0  0  0  0  0  0  0  0  0
  1 11  1  0  0  0  0
  2  1  1  0  0  0  0
  3  1  2  0  0  0  0
  3  5  1  0  0  0  0
  4  3  1  0  0  0  0
  5  6  1  0  0  0  0
  5  7  2  0  0  0  0
  7  8  1  0  0  0  0
  9  7  1  0  0  0  0
  9 10  1  0  0  0  0
 11 12  1  0  0  0  0
 11  9  2  0  0  0  0
 13 14  1  0  0  0  0
 13 15  1  0  0  0  0
M  END
>  <SMILES>
c1ccccc1.O

>  <MoleculeName>
BenzeneWaterOHpi100

>  <Distance Scale>
1.0

>  <Energy Value>
-3.27

$$$$
/home/S66X8/3030_42UracilCyclopentane105.xyz
 OpenBabel06262409173D

 27 27  0  0  0  0  0  0  0  0999 V2000
    0.1957   -0.8447    0.8238 N   0  0  0  0  0  0  0  0  0  0  0  0
    0.4504   -1.7968    1.0498 H   0  0  0  0  0  0  0  0  0  0  0  0
   -1.1790   -0.5737    0.7595 C   0  0  0  0  0  0  0  0  0  0  0  0
   -1.9936   -1.4563    0.9669 O   0  0  0  0  0  0  0  0  0  0  0  0
   -1.4767    0.8112    0.4376 C   0  0  0  0  0  0  0  0  0  0  0  0
   -2.5064    1.1157    0.3639 H   0  0  0  0  0  0  0  0  0  0  0  0
   -0.4681    1.6830    0.2349 C   0  0  0  0  0  0  0  0  0  0  0  0
   -0.6384    2.7216   -0.0062 H   0  0  0  0  0  0  0  0  0  0  0  0
    0.8456    1.3060    0.3268 N   0  0  0  0  0  0  0  0  0  0  0  0
    1.5897    1.9689    0.1860 H   0  0  0  0  0  0  0  0  0  0  0  0
    1.2543    0.0195    0.6362 C   0  0  0  0  0  0  0  0  0  0  0  0
    2.4223   -0.3017    0.7319 O   0  0  0  0  0  0  0  0  0  0  0  0
    1.0623   -0.8665    4.5786 C   0  0  0  0  0  0  0  0  0  0  0  0
    1.5161   -0.9586    3.5906 H   0  0  0  0  0  0  0  0  0  0  0  0
    1.6068   -1.5305    5.2478 H   0  0  0  0  0  0  0  0  0  0  0  0
    1.1166    0.5994    5.0115 C   0  0  0  0  0  0  0  0  0  0  0  0
    2.0749    1.0723    4.8008 H   0  0  0  0  0  0  0  0  0  0  0  0
    0.9285    0.6811    6.0847 H   0  0  0  0  0  0  0  0  0  0  0  0
   -0.0508    1.2122    4.2407 C   0  0  0  0  0  0  0  0  0  0  0  0
    0.2235    1.3010    3.1873 H   0  0  0  0  0  0  0  0  0  0  0  0
   -0.3352    2.2034    4.5924 H   0  0  0  0  0  0  0  0  0  0  0  0
   -1.1677    0.1747    4.4118 C   0  0  0  0  0  0  0  0  0  0  0  0
   -1.8933    0.1983    3.6004 H   0  0  0  0  0  0  0  0  0  0  0  0
   -1.7118    0.3794    5.3340 H   0  0  0  0  0  0  0  0  0  0  0  0
   -0.4447   -1.1919    4.5154 C   0  0  0  0  0  0  0  0  0  0  0  0
   -0.6873   -1.8360    3.6721 H   0  0  0  0  0  0  0  0  0  0  0  0
   -0.7598   -1.7193    5.4145 H   0  0  0  0  0  0  0  0  0  0  0  0
  1  2  1  0  0  0  0
  3  1  1  0  0  0  0
  3  4  2  0  0  0  0
  5  3  1  0  0  0  0
  6  5  1  0  0  0  0
  7  9  1  0  0  0  0
  7  5  2  0  0  0  0
  8  7  1  0  0  0  0
  9 11  1  0  0  0  0
 10  9  1  0  0  0  0
 11 12  2  0  0  0  0
 11  1  1  0  0  0  0
 13 16  1  0  0  0  0
 13 15  1  0  0  0  0
 14 13  1  0  0  0  0
 16 18  1  0  0  0  0
 17 16  1  0  0  0  0
 19 22  1  0  0  0  0
 19 21  1  0  0  0  0
 19 16  1  0  0  0  0
 20 19  1  0  0  0  0
 22 25  1  0  0  0  0
 22 24  1  0  0  0  0
 23 22  1  0  0  0  0
 25 13  1  0  0  0  0
 25 27  1  0  0  0  0
 26 25  1  0  0  0  0
M  END
>  <SMILES>
[nH]1c(=O)cc[nH]c1=O.C1CCCC1

>  <MoleculeName>
UracilCyclopentane105

>  <Distance Scale>
1.05

>  <Energy Value>
-3.92

$$$$
/home/S66X8/3045_44EthenePentane100.xyz
 OpenBabel06262409173D

 23 21  0  0  0  0  0  0  0  0999 V2000
    0.6664    0.1838    0.4197 C   0  0  0  0  0  0  0  0  0  0  0  0
    1.2289   -0.3299    1.1863 H   0  0  0  0  0  0  0  0  0  0  0  0
    1.2280    0.6972   -0.3476 H   0  0  0  0  0  0  0  0  0  0  0  0
   -0.6660    0.1830    0.4196 C   0  0  0  0  0  0  0  0  0  0  0  0
   -1.2279   -0.3315    1.1861 H   0  0  0  0  0  0  0  0  0  0  0  0
   -1.2282    0.6956   -0.3477 H   0  0  0  0  0  0  0  0  0  0  0  0
   -2.5328   -0.3980    4.2118 C   0  0  0  0  0  0  0  0  0  0  0  0
   -2.5623   -1.0110    3.3106 H   0  0  0  0  0  0  0  0  0  0  0  0
   -2.5689   -1.0722    5.0674 H   0  0  0  0  0  0  0  0  0  0  0  0
   -3.4339    0.2130    4.2291 H   0  0  0  0  0  0  0  0  0  0  0  0
   -1.2713    0.4547    4.2476 C   0  0  0  0  0  0  0  0  0  0  0  0
   -1.2717    1.0748    5.1470 H   0  0  0  0  0  0  0  0  0  0  0  0
   -1.2629    1.1416    3.3986 H   0  0  0  0  0  0  0  0  0  0  0  0
   -0.0001   -0.3829    4.2207 C   0  0  0  0  0  0  0  0  0  0  0  0
   -0.0002   -1.0695    5.0725 H   0  0  0  0  0  0  0  0  0  0  0  0
    0.0001   -1.0104    3.3241 H   0  0  0  0  0  0  0  0  0  0  0  0
    1.2712    0.4547    4.2481 C   0  0  0  0  0  0  0  0  0  0  0  0
    1.2714    1.0745    5.1476 H   0  0  0  0  0  0  0  0  0  0  0  0
    1.2630    1.1418    3.3992 H   0  0  0  0  0  0  0  0  0  0  0  0
    2.5326   -0.3980    4.2123 C   0  0  0  0  0  0  0  0  0  0  0  0
    2.5622   -1.0109    3.3110 H   0  0  0  0  0  0  0  0  0  0  0  0
    3.4338    0.2129    4.2299 H   0  0  0  0  0  0  0  0  0  0  0  0
    2.5685   -1.0725    5.0678 H   0  0  0  0  0  0  0  0  0  0  0  0
  1  2  1  0  0  0  0
  3  1  1  0  0  0  0
  4  1  2  0  0  0  0
  4  5  1  0  0  0  0
  6  4  1  0  0  0  0
  7 10  1  0  0  0  0
  7 11  1  0  0  0  0
  7  9  1  0  0  0  0
  8  7  1  0  0  0  0
 11 12  1  0  0  0  0
 13 11  1  0  0  0  0
 14 11  1  0  0  0  0
 14 17  1  0  0  0  0
 14 15  1  0  0  0  0
 16 14  1  0  0  0  0
 17 18  1  0  0  0  0
 19 17  1  0  0  0  0
 20 22  1  0  0  0  0
 20 17  1  0  0  0  0
 20 23  1  0  0  0  0
 21 20  1  0  0  0  0
M  END
>  <SMILES>
C=C.CCCCC

>  <MoleculeName>
EthenePentane100

>  <Distance Scale>
1.0

>  <Energy Value>
-1.99

$$$$
/home/S66X8/3116_53BenzeneAcNH2NHpi095.xyz
 OpenBabel06262409173D

 21 20  0  0  0  0  0  0  0  0999 V2000
    0.8556    0.3585    1.0498 C   0  0  0  0  0  0  0  0  0  0  0  0
    1.5138    0.9027    1.7128 H   0  0  0  0  0  0  0  0  0  0  0  0
    1.3429   -0.6754    0.2512 C   0  0  0  0  0  0  0  0  0  0  0  0
    2.3929   -0.9333    0.2820 H   0  0  0  0  0  0  0  0  0  0  0  0
    0.4778   -1.3767   -0.5878 C   0  0  0  0  0  0  0  0  0  0  0  0
    0.8561   -2.1789   -1.2068 H   0  0  0  0  0  0  0  0  0  0  0  0
   -0.8748   -1.0426   -0.6305 C   0  0  0  0  0  0  0  0  0  0  0  0
   -1.5454   -1.5857   -1.2824 H   0  0  0  0  0  0  0  0  0  0  0  0
   -1.3624   -0.0070    0.1658 C   0  0  0  0  0  0  0  0  0  0  0  0
   -2.4116    0.2535    0.1308 H   0  0  0  0  0  0  0  0  0  0  0  0
   -0.4984    0.6932    1.0070 C   0  0  0  0  0  0  0  0  0  0  0  0
   -0.8661    1.4903    1.6380 H   0  0  0  0  0  0  0  0  0  0  0  0
    0.0987    0.5508    4.7099 C   0  0  0  0  0  0  0  0  0  0  0  0
    0.3452    1.5943    4.1226 O   0  0  0  0  0  0  0  0  0  0  0  0
   -0.2053   -0.6042    4.0587 N   0  0  0  0  0  0  0  0  0  0  0  0
   -0.1801   -0.6112    3.0520 H   0  0  0  0  0  0  0  0  0  0  0  0
   -0.3611   -1.4597    4.5544 H   0  0  0  0  0  0  0  0  0  0  0  0
    0.1216    0.4559    6.2183 C   0  0  0  0  0  0  0  0  0  0  0  0
    1.1533    0.5402    6.5533 H   0  0  0  0  0  0  0  0  0  0  0  0
   -0.3003   -0.4707    6.5993 H   0  0  0  0  0  0  0  0  0  0  0  0
   -0.4279    1.2998    6.6250 H   0  0  0  0  0  0  0  0  0  0  0  0
  1  2  1  0  0  0  0
  3  4  1  0  0  0  0
  3  1  2  0  0  0  0
  5  3  1  0  0  0  0
  6  5  1  0  0  0  0
  7  5  2  0  0  0  0
  7  9  1  0  0  0  0
  8  7  1  0  0  0  0
  9 11  2  0  0  0  0
 10  9  1  0  0  0  0
 11  1  1  0  0  0  0
 11 12  1  0  0  0  0
 13 18  1  0  0  0  0
 14 13  2  0  0  0  0
 15 17  1  0  0  0  0
 15 13  1  0  0  0  0
 16 15  1  0  0  0  0
 18 19  1  0  0  0  0
 18 20  1  0  0  0  0
 18 21  1  0  0  0  0
M  END
>  <SMILES>
c1ccccc1.C(=O)(N)C

>  <MoleculeName>
BenzeneAcNH2NHpi095

>  <Distance Scale>
0.95

>  <Energy Value>
-4.27

$$$$
/home/S66X8/3130_54BenzeneWaterOHpi200.xyz
 OpenBabel06262409173D

 15 14  0  0  0  0  0  0  0  0999 V2000
    0.7801   -0.6099   -1.2076 C   0  0  0  0  0  0  0  0  0  0  0  0
    0.8962   -1.1376   -2.1441 H   0  0  0  0  0  0  0  0  0  0  0  0
    0.4779    0.7510   -1.2079 C   0  0  0  0  0  0  0  0  0  0  0  0
    0.3570    1.2782   -2.1441 H   0  0  0  0  0  0  0  0  0  0  0  0
    0.3273    1.4319   -0.0000 C   0  0  0  0  0  0  0  0  0  0  0  0
    0.0915    2.4871    0.0000 H   0  0  0  0  0  0  0  0  0  0  0  0
    0.4779    0.7510    1.2079 C   0  0  0  0  0  0  0  0  0  0  0  0
    0.3570    1.2782    2.1441 H   0  0  0  0  0  0  0  0  0  0  0  0
    0.7801   -0.6099    1.2076 C   0  0  0  0  0  0  0  0  0  0  0  0
    0.8962   -1.1376    2.1441 H   0  0  0  0  0  0  0  0  0  0  0  0
    0.9316   -1.2900    0.0000 C   0  0  0  0  0  0  0  0  0  0  0  0
    1.1685   -2.3452   -0.0000 H   0  0  0  0  0  0  0  0  0  0  0  0
   -5.4866   -0.5771   -0.0000 O   0  0  0  0  0  0  0  0  0  0  0  0
   -5.3218   -1.5219   -0.0000 H   0  0  0  0  0  0  0  0  0  0  0  0
   -4.5993   -0.2055   -0.0000 H   0  0  0  0  0  0  0  0  0  0  0  0
  1 11  1  0  0  0  0
  2  1  1  0  0  0  0
  3  1  2  0  0  0  0
  3  5  1  0  0  0  0
  4  3  1  0  0  0  0
  5  6  1  0  0  0  0
  5  7  2  0  0  0  0
  7  8  1  0  0  0  0
  9  7  1  0  0  0  0
  9 10  1  0  0  0  0
 11 12  1  0  0  0  0
 11  9  2  0  0  0  0
 13 14  1  0  0  0  0
 13 15  1  0  0  0  0
M  END
>  <SMILES>
c1ccccc1.O

>  <MoleculeName>
BenzeneWaterOHpi200

>  <Distance Scale>
2.0

>  <Energy Value>
-0.42

$$$$
/home/S66X8/2940_31UracilEthene095.xyz
 OpenBabel06262409173D

 18 17  0  0  0  0  0  0  0  0999 V2000
   -0.0509   -0.9801    0.0340 N   0  0  0  0  0  0  0  0  0  0  0  0
   -0.0532   -1.9907    0.0498 H   0  0  0  0  0  0  0  0  0  0  0  0
   -1.3088   -0.3619    0.0040 C   0  0  0  0  0  0  0  0  0  0  0  0
   -2.3272   -1.0326   -0.0058 O   0  0  0  0  0  0  0  0  0  0  0  0
   -1.2368    1.0880   -0.0122 C   0  0  0  0  0  0  0  0  0  0  0  0
   -2.1527    1.6515   -0.0548 H   0  0  0  0  0  0  0  0  0  0  0  0
   -0.0352    1.6978    0.0337 C   0  0  0  0  0  0  0  0  0  0  0  0
    0.0704    2.7725    0.0319 H   0  0  0  0  0  0  0  0  0  0  0  0
    1.1345    0.9903    0.0918 N   0  0  0  0  0  0  0  0  0  0  0  0
    2.0237    1.4568    0.1557 H   0  0  0  0  0  0  0  0  0  0  0  0
    1.1932   -0.3918    0.1158 C   0  0  0  0  0  0  0  0  0  0  0  0
    2.2364   -1.0112    0.1942 O   0  0  0  0  0  0  0  0  0  0  0  0
    0.7224    0.0205    3.2649 C   0  0  0  0  0  0  0  0  0  0  0  0
    1.2396   -0.8505    2.8877 H   0  0  0  0  0  0  0  0  0  0  0  0
    1.3280    0.8075    3.6922 H   0  0  0  0  0  0  0  0  0  0  0  0
   -0.6063    0.1211    3.2156 C   0  0  0  0  0  0  0  0  0  0  0  0
   -1.2183   -0.6664    2.7987 H   0  0  0  0  0  0  0  0  0  0  0  0
   -1.1182    0.9922    3.5996 H   0  0  0  0  0  0  0  0  0  0  0  0
  1  2  1  0  0  0  0
  1 11  1  0  0  0  0
  3  1  1  0  0  0  0
  4  3  2  0  0  0  0
  5  3  1  0  0  0  0
  5  7  2  0  0  0  0
  6  5  1  0  0  0  0
  7  9  1  0  0  0  0
  8  7  1  0  0  0  0
  9 11  1  0  0  0  0
  9 10  1  0  0  0  0
 11 12  2  0  0  0  0
 13 15  1  0  0  0  0
 14 13  1  0  0  0  0
 16 13  2  0  0  0  0
 16 18  1  0  0  0  0
 17 16  1  0  0  0  0
M  END
>  <SMILES>
[nH]1c(=O)cc[nH]c1=O.C=C

>  <MoleculeName>
UracilEthene095

>  <Distance Scale>
0.95

>  <Energy Value>
-3.24

$$$$
/home/S66X8/3044_44EthenePentane095.xyz
 OpenBabel06262409173D

 23 21  0  0  0  0  0  0  0  0999 V2000
    0.6664    0.1838    0.4197 C   0  0  0  0  0  0  0  0  0  0  0  0
    1.2289   -0.3299    1.1863 H   0  0  0  0  0  0  0  0  0  0  0  0
    1.2280    0.6972   -0.3476 H   0  0  0  0  0  0  0  0  0  0  0  0
   -0.6660    0.1830    0.4196 C   0  0  0  0  0  0  0  0  0  0  0  0
   -1.2279   -0.3315    1.1861 H   0  0  0  0  0  0  0  0  0  0  0  0
   -1.2282    0.6956   -0.3477 H   0  0  0  0  0  0  0  0  0  0  0  0
   -2.5328   -0.3881    4.0605 C   0  0  0  0  0  0  0  0  0  0  0  0
   -2.5622   -1.0012    3.1593 H   0  0  0  0  0  0  0  0  0  0  0  0
   -2.5689   -1.0624    4.9162 H   0  0  0  0  0  0  0  0  0  0  0  0
   -3.4339    0.2229    4.0778 H   0  0  0  0  0  0  0  0  0  0  0  0
   -1.2713    0.4645    4.0964 C   0  0  0  0  0  0  0  0  0  0  0  0
   -1.2717    1.0846    4.9958 H   0  0  0  0  0  0  0  0  0  0  0  0
   -1.2629    1.1514    3.2473 H   0  0  0  0  0  0  0  0  0  0  0  0
   -0.0000   -0.3730    4.0694 C   0  0  0  0  0  0  0  0  0  0  0  0
   -0.0002   -1.0597    4.9212 H   0  0  0  0  0  0  0  0  0  0  0  0
    0.0001   -1.0006    3.1728 H   0  0  0  0  0  0  0  0  0  0  0  0
    1.2712    0.4646    4.0968 C   0  0  0  0  0  0  0  0  0  0  0  0
    1.2715    1.0844    4.9963 H   0  0  0  0  0  0  0  0  0  0  0  0
    1.2630    1.1516    3.2479 H   0  0  0  0  0  0  0  0  0  0  0  0
    2.5326   -0.3882    4.0610 C   0  0  0  0  0  0  0  0  0  0  0  0
    2.5623   -1.0010    3.1597 H   0  0  0  0  0  0  0  0  0  0  0  0
    3.4338    0.2228    4.0786 H   0  0  0  0  0  0  0  0  0  0  0  0
    2.5685   -1.0626    4.9165 H   0  0  0  0  0  0  0  0  0  0  0  0
  1  2  1  0  0  0  0
  3  1  1  0  0  0  0
  4  1  2  0  0  0  0
  4  5  1  0  0  0  0
  6  4  1  0  0  0  0
  7 10  1  0  0  0  0
  7 11  1  0  0  0  0
  7  9  1  0  0  0  0
  8  7  1  0  0  0  0
 11 12  1  0  0  0  0
 13 11  1  0  0  0  0
 14 11  1  0  0  0  0
 14 17  1  0  0  0  0
 14 15  1  0  0  0  0
 16 14  1  0  0  0  0
 17 18  1  0  0  0  0
 19 17  1  0  0  0  0
 20 22  1  0  0  0  0
 20 17  1  0  0  0  0
 20 23  1  0  0  0  0
 21 20  1  0  0  0  0
M  END
>  <SMILES>
C=C.CCCCC

>  <MoleculeName>
EthenePentane095

>  <Distance Scale>
0.95

>  <Energy Value>
-1.97

$$$$
/home/S66X8/2766_09MeNH2MeOH105.xyz
 OpenBabel06262409173D

 13 11  0  0  0  0  0  0  0  0999 V2000
   -0.8935   -0.0438   -0.0430 N   0  0  0  0  0  0  0  0  0  0  0  0
    0.0969   -0.2561   -0.0711 H   0  0  0  0  0  0  0  0  0  0  0  0
   -1.3684   -0.9334    0.0338 H   0  0  0  0  0  0  0  0  0  0  0  0
   -1.1758    0.7579    1.1452 C   0  0  0  0  0  0  0  0  0  0  0  0
   -2.2416    0.9722    1.1950 H   0  0  0  0  0  0  0  0  0  0  0  0
   -0.8808    0.3042    2.0972 H   0  0  0  0  0  0  0  0  0  0  0  0
   -0.6630    1.7143    1.0608 H   0  0  0  0  0  0  0  0  0  0  0  0
    2.4596   -0.0308    0.0357 O   0  0  0  0  0  0  0  0  0  0  0  0
    2.7417    0.3392   -0.8041 H   0  0  0  0  0  0  0  0  0  0  0  0
    2.8455    0.8808    1.0552 C   0  0  0  0  0  0  0  0  0  0  0  0
    2.5224    0.4512    1.9982 H   0  0  0  0  0  0  0  0  0  0  0  0
    3.9266    1.0199    1.0942 H   0  0  0  0  0  0  0  0  0  0  0  0
    2.3671    1.8544    0.9400 H   0  0  0  0  0  0  0  0  0  0  0  0
  1  3  1  0  0  0  0
  1  4  1  0  0  0  0
  2  1  1  0  0  0  0
  4  5  1  0  0  0  0
  4  6  1  0  0  0  0
  7  4  1  0  0  0  0
  8 10  1  0  0  0  0
  9  8  1  0  0  0  0
 10 12  1  0  0  0  0
 10 11  1  0  0  0  0
 13 10  1  0  0  0  0
M  END
>  <SMILES>
NC.OC

>  <MoleculeName>
MeNH2MeOH105

>  <Distance Scale>
1.05

>  <Energy Value>
-2.9

$$$$
/home/S66X8/2779_11MeNH2Peptide090.xyz
 OpenBabel06262409173D

 19 17  0  0  0  0  0  0  0  0999 V2000
   -0.5697    0.8144    0.1011 N   0  0  0  0  0  0  0  0  0  0  0  0
    0.1309    0.5614   -0.5876 H   0  0  0  0  0  0  0  0  0  0  0  0
   -1.4613    0.5269   -0.2804 H   0  0  0  0  0  0  0  0  0  0  0  0
   -0.3055    0.0657    1.3288 C   0  0  0  0  0  0  0  0  0  0  0  0
   -1.0571    0.3143    2.0760 H   0  0  0  0  0  0  0  0  0  0  0  0
   -0.2880   -1.0223    1.2148 H   0  0  0  0  0  0  0  0  0  0  0  0
    0.6605    0.3685    1.7302 H   0  0  0  0  0  0  0  0  0  0  0  0
    2.0725    2.7032   -0.1240 C   0  0  0  0  0  0  0  0  0  0  0  0
    2.1971    3.1144   -1.1231 H   0  0  0  0  0  0  0  0  0  0  0  0
    2.5790    3.3442    0.5937 H   0  0  0  0  0  0  0  0  0  0  0  0
    1.0061    2.6767    0.0944 H   0  0  0  0  0  0  0  0  0  0  0  0
    2.5845    1.2854   -0.1218 C   0  0  0  0  0  0  0  0  0  0  0  0
    2.1245    0.4197   -0.8609 O   0  0  0  0  0  0  0  0  0  0  0  0
    3.5710    1.0124    0.7706 N   0  0  0  0  0  0  0  0  0  0  0  0
    3.9707    1.7673    1.2959 H   0  0  0  0  0  0  0  0  0  0  0  0
    4.1594   -0.3072    0.8481 C   0  0  0  0  0  0  0  0  0  0  0  0
    3.3712   -1.0485    0.7551 H   0  0  0  0  0  0  0  0  0  0  0  0
    4.8807   -0.4792    0.0495 H   0  0  0  0  0  0  0  0  0  0  0  0
    4.6540   -0.4231    1.8080 H   0  0  0  0  0  0  0  0  0  0  0  0
  1  4  1  0  0  0  0
  2  1  1  0  0  0  0
  3  1  1  0  0  0  0
  4  7  1  0  0  0  0
  4  5  1  0  0  0  0
  6  4  1  0  0  0  0
  8 12  1  0  0  0  0
  8 11  1  0  0  0  0
  8 10  1  0  0  0  0
  9  8  1  0  0  0  0
 12 14  1  0  0  0  0
 13 12  2  0  0  0  0
 14 16  1  0  0  0  0
 14 15  1  0  0  0  0
 16 19  1  0  0  0  0
 17 16  1  0  0  0  0
 18 16  1  0  0  0  0
M  END
>  <SMILES>
NC.CC(=O)NC

>  <MoleculeName>
MeNH2Peptide090

>  <Distance Scale>
0.9

>  <Energy Value>
-4.95

$$$$
/home/S66X8/3110_52BenzeneAcOHOHpi105.xyz
 OpenBabel06262409173D

 20 19  0  0  0  0  0  0  0  0999 V2000
    0.9641    0.8751    0.3780 C   0  0  0  0  0  0  0  0  0  0  0  0
    1.6598    1.6999    0.4460 H   0  0  0  0  0  0  0  0  0  0  0  0
    1.4311   -0.4131    0.1190 C   0  0  0  0  0  0  0  0  0  0  0  0
    2.4895   -0.5872   -0.0170 H   0  0  0  0  0  0  0  0  0  0  0  0
    0.5341   -1.4776    0.0424 C   0  0  0  0  0  0  0  0  0  0  0  0
    0.8970   -2.4774   -0.1520 H   0  0  0  0  0  0  0  0  0  0  0  0
   -0.8303   -1.2536    0.2209 C   0  0  0  0  0  0  0  0  0  0  0  0
   -1.5258   -2.0796    0.1641 H   0  0  0  0  0  0  0  0  0  0  0  0
   -1.2976    0.0344    0.4802 C   0  0  0  0  0  0  0  0  0  0  0  0
   -2.3544    0.2080    0.6286 H   0  0  0  0  0  0  0  0  0  0  0  0
   -0.4004    1.0998    0.5616 C   0  0  0  0  0  0  0  0  0  0  0  0
   -0.7605    2.0938    0.7848 H   0  0  0  0  0  0  0  0  0  0  0  0
   -0.1086    0.5118    4.5119 C   0  0  0  0  0  0  0  0  0  0  0  0
   -0.5768    1.5612    4.1326 O   0  0  0  0  0  0  0  0  0  0  0  0
    0.2946   -0.4658    3.6726 O   0  0  0  0  0  0  0  0  0  0  0  0
    0.1259   -0.1399    2.7712 H   0  0  0  0  0  0  0  0  0  0  0  0
    0.1013    0.1148    5.9433 C   0  0  0  0  0  0  0  0  0  0  0  0
   -0.2087    0.9241    6.5933 H   0  0  0  0  0  0  0  0  0  0  0  0
   -0.4748   -0.7818    6.1602 H   0  0  0  0  0  0  0  0  0  0  0  0
    1.1498   -0.1213    6.1083 H   0  0  0  0  0  0  0  0  0  0  0  0
  1  2  1  0  0  0  0
  1 11  1  0  0  0  0
  3  1  2  0  0  0  0
  4  3  1  0  0  0  0
  5  3  1  0  0  0  0
  5  7  2  0  0  0  0
  6  5  1  0  0  0  0
  7  9  1  0  0  0  0
  8  7  1  0  0  0  0
  9 11  2  0  0  0  0
  9 10  1  0  0  0  0
 11 12  1  0  0  0  0
 13 17  1  0  0  0  0
 14 13  2  0  0  0  0
 15 13  1  0  0  0  0
 16 15  1  0  0  0  0
 17 20  1  0  0  0  0
 17 19  1  0  0  0  0
 17 18  1  0  0  0  0
M  END
>  <SMILES>
c1ccccc1.C(=O)(O)C

>  <MoleculeName>
BenzeneAcOHOHpi105

>  <Distance Scale>
1.05

>  <Energy Value>
-4.55

$$$$
/home/S66X8/3121_53BenzeneAcNH2NHpi150.xyz
 OpenBabel06262409173D

 21 20  0  0  0  0  0  0  0  0999 V2000
    0.8556    0.3585    1.0498 C   0  0  0  0  0  0  0  0  0  0  0  0
    1.5138    0.9027    1.7128 H   0  0  0  0  0  0  0  0  0  0  0  0
    1.3429   -0.6754    0.2512 C   0  0  0  0  0  0  0  0  0  0  0  0
    2.3929   -0.9333    0.2820 H   0  0  0  0  0  0  0  0  0  0  0  0
    0.4778   -1.3767   -0.5878 C   0  0  0  0  0  0  0  0  0  0  0  0
    0.8561   -2.1789   -1.2068 H   0  0  0  0  0  0  0  0  0  0  0  0
   -0.8748   -1.0426   -0.6305 C   0  0  0  0  0  0  0  0  0  0  0  0
   -1.5454   -1.5857   -1.2824 H   0  0  0  0  0  0  0  0  0  0  0  0
   -1.3624   -0.0070    0.1658 C   0  0  0  0  0  0  0  0  0  0  0  0
   -2.4116    0.2535    0.1308 H   0  0  0  0  0  0  0  0  0  0  0  0
   -0.4984    0.6932    1.0070 C   0  0  0  0  0  0  0  0  0  0  0  0
   -0.8661    1.4903    1.6380 H   0  0  0  0  0  0  0  0  0  0  0  0
   -0.1233   -0.1532    5.9629 C   0  0  0  0  0  0  0  0  0  0  0  0
    0.1232    0.8902    5.3757 O   0  0  0  0  0  0  0  0  0  0  0  0
   -0.4274   -1.3082    5.3117 N   0  0  0  0  0  0  0  0  0  0  0  0
   -0.4022   -1.3152    4.3051 H   0  0  0  0  0  0  0  0  0  0  0  0
   -0.5832   -2.1637    5.8074 H   0  0  0  0  0  0  0  0  0  0  0  0
   -0.1005   -0.2481    7.4713 C   0  0  0  0  0  0  0  0  0  0  0  0
    0.9312   -0.1639    7.8064 H   0  0  0  0  0  0  0  0  0  0  0  0
   -0.5224   -1.1747    7.8523 H   0  0  0  0  0  0  0  0  0  0  0  0
   -0.6500    0.5958    7.8781 H   0  0  0  0  0  0  0  0  0  0  0  0
  1  2  1  0  0  0  0
  3  4  1  0  0  0  0
  3  1  2  0  0  0  0
  5  3  1  0  0  0  0
  6  5  1  0  0  0  0
  7  5  2  0  0  0  0
  7  9  1  0  0  0  0
  8  7  1  0  0  0  0
  9 11  2  0  0  0  0
 10  9  1  0  0  0  0
 11  1  1  0  0  0  0
 11 12  1  0  0  0  0
 13 18  1  0  0  0  0
 14 13  2  0  0  0  0
 15 17  1  0  0  0  0
 15 13  1  0  0  0  0
 16 15  1  0  0  0  0
 18 19  1  0  0  0  0
 18 20  1  0  0  0  0
 18 21  1  0  0  0  0
M  END
>  <SMILES>
c1ccccc1.C(=O)(N)C

>  <MoleculeName>
BenzeneAcNH2NHpi150

>  <Distance Scale>
1.5

>  <Energy Value>
-1.65

$$$$
/home/S66X8/2748_07MeOHPeptide095.xyz
 OpenBabel06262409173D

 18 16  0  0  0  0  0  0  0  0999 V2000
   -0.2088   -0.2169   -1.0324 O   0  0  0  0  0  0  0  0  0  0  0  0
    0.7111   -0.3869   -0.7740 H   0  0  0  0  0  0  0  0  0  0  0  0
   -1.0222   -0.7412   -0.0055 C   0  0  0  0  0  0  0  0  0  0  0  0
   -2.0575   -0.5387   -0.2686 H   0  0  0  0  0  0  0  0  0  0  0  0
   -0.9077   -1.8218    0.1085 H   0  0  0  0  0  0  0  0  0  0  0  0
   -0.8246   -0.2755    0.9646 H   0  0  0  0  0  0  0  0  0  0  0  0
    1.9090    1.9027    0.4101 C   0  0  0  0  0  0  0  0  0  0  0  0
    2.4154    2.8641    0.3752 H   0  0  0  0  0  0  0  0  0  0  0  0
    1.4985    1.7565    1.4079 H   0  0  0  0  0  0  0  0  0  0  0  0
    1.0794    1.8931   -0.2915 H   0  0  0  0  0  0  0  0  0  0  0  0
    2.8246    0.7477    0.0941 C   0  0  0  0  0  0  0  0  0  0  0  0
    2.4005   -0.3722   -0.1909 O   0  0  0  0  0  0  0  0  0  0  0  0
    4.1508    1.0094    0.1533 N   0  0  0  0  0  0  0  0  0  0  0  0
    4.4488    1.9199    0.4510 H   0  0  0  0  0  0  0  0  0  0  0  0
    5.1332   -0.0307   -0.0694 C   0  0  0  0  0  0  0  0  0  0  0  0
    4.7766   -0.6816   -0.8616 H   0  0  0  0  0  0  0  0  0  0  0  0
    6.0736    0.4229   -0.3679 H   0  0  0  0  0  0  0  0  0  0  0  0
    5.2927   -0.6352    0.8227 H   0  0  0  0  0  0  0  0  0  0  0  0
  1  2  1  0  0  0  0
  1  3  1  0  0  0  0
  3  5  1  0  0  0  0
  3  6  1  0  0  0  0
  4  3  1  0  0  0  0
  7  9  1  0  0  0  0
  8  7  1  0  0  0  0
 10  7  1  0  0  0  0
 11 13  1  0  0  0  0
 11  7  1  0  0  0  0
 12 11  2  0  0  0  0
 13 14  1  0  0  0  0
 15 13  1  0  0  0  0
 15 18  1  0  0  0  0
 16 15  1  0  0  0  0
 17 15  1  0  0  0  0
M  END
>  <SMILES>
OC.CC(=O)NC

>  <MoleculeName>
MeOHPeptide095

>  <Distance Scale>
0.95

>  <Energy Value>
-8.14

$$$$
/home/S66X8/3197_63BenzeneAcOH100.xyz
 OpenBabel06262409173D

 20 19  0  0  0  0  0  0  0  0999 V2000
    0.6068    1.3304    0.3164 C   0  0  0  0  0  0  0  0  0  0  0  0
    1.2465    2.2023    0.3304 H   0  0  0  0  0  0  0  0  0  0  0  0
    1.1181    0.0872    0.6851 C   0  0  0  0  0  0  0  0  0  0  0  0
    2.1501   -0.0039    0.9938 H   0  0  0  0  0  0  0  0  0  0  0  0
    0.2929   -1.0361    0.6691 C   0  0  0  0  0  0  0  0  0  0  0  0
    0.6885   -2.0010    0.9554 H   0  0  0  0  0  0  0  0  0  0  0  0
   -1.0428   -0.9167    0.2882 C   0  0  0  0  0  0  0  0  0  0  0  0
   -1.6827   -1.7885    0.2793 H   0  0  0  0  0  0  0  0  0  0  0  0
   -1.5536    0.3273   -0.0799 C   0  0  0  0  0  0  0  0  0  0  0  0
   -2.5892    0.4203   -0.3773 H   0  0  0  0  0  0  0  0  0  0  0  0
   -0.7280    1.4508   -0.0668 C   0  0  0  0  0  0  0  0  0  0  0  0
   -1.1236    2.4157   -0.3539 H   0  0  0  0  0  0  0  0  0  0  0  0
    0.4182   -0.2706    4.0317 C   0  0  0  0  0  0  0  0  0  0  0  0
    1.6137   -0.1066    4.1083 O   0  0  0  0  0  0  0  0  0  0  0  0
   -0.1613   -1.4820    4.2312 O   0  0  0  0  0  0  0  0  0  0  0  0
    0.5732   -2.0831    4.4242 H   0  0  0  0  0  0  0  0  0  0  0  0
   -0.6037    0.7734    3.7111 C   0  0  0  0  0  0  0  0  0  0  0  0
   -0.1254    1.7443    3.6642 H   0  0  0  0  0  0  0  0  0  0  0  0
   -1.0565    0.5402    2.7484 H   0  0  0  0  0  0  0  0  0  0  0  0
   -1.3885    0.7678    4.4636 H   0  0  0  0  0  0  0  0  0  0  0  0
  1  2  1  0  0  0  0
  1  3  1  0  0  0  0
  3  4  1  0  0  0  0
  5  3  2  0  0  0  0
  5  6  1  0  0  0  0
  7  5  1  0  0  0  0
  8  7  1  0  0  0  0
  9 11  1  0  0  0  0
  9  7  2  0  0  0  0
 10  9  1  0  0  0  0
 11  1  2  0  0  0  0
 12 11  1  0  0  0  0
 13 14  2  0  0  0  0
 13 15  1  0  0  0  0
 15 16  1  0  0  0  0
 17 13  1  0  0  0  0
 17 20  1  0  0  0  0
 18 17  1  0  0  0  0
 19 17  1  0  0  0  0
M  END
>  <SMILES>
c1ccccc1.C(=O)(O)C

>  <MoleculeName>
BenzeneAcOH100

>  <Distance Scale>
1.0

>  <Energy Value>
-3.8

$$$$
/home/S66X8/3090_49BenzenePyridineTS200.xyz
 OpenBabel06262409173D

 23 23  0  0  0  0  0  0  0  0999 V2000
    0.8451    1.0579    0.6995 C   0  0  0  0  0  0  0  0  0  0  0  0
    1.5064    1.9032    0.8334 H   0  0  0  0  0  0  0  0  0  0  0  0
    1.3755   -0.2175    0.5112 C   0  0  0  0  0  0  0  0  0  0  0  0
    2.4472   -0.3615    0.5029 H   0  0  0  0  0  0  0  0  0  0  0  0
    0.5241   -1.3070    0.3332 C   0  0  0  0  0  0  0  0  0  0  0  0
    0.9357   -2.2960    0.1849 H   0  0  0  0  0  0  0  0  0  0  0  0
   -0.8577   -1.1215    0.3464 C   0  0  0  0  0  0  0  0  0  0  0  0
   -1.5184   -1.9665    0.2084 H   0  0  0  0  0  0  0  0  0  0  0  0
   -1.3880    0.1536    0.5376 C   0  0  0  0  0  0  0  0  0  0  0  0
   -2.4597    0.2974    0.5500 H   0  0  0  0  0  0  0  0  0  0  0  0
   -0.5366    1.2434    0.7127 C   0  0  0  0  0  0  0  0  0  0  0  0
   -0.9489    2.2328    0.8574 H   0  0  0  0  0  0  0  0  0  0  0  0
   -0.0133   -0.2357    9.6663 N   0  0  0  0  0  0  0  0  0  0  0  0
    0.1413    0.7022    8.7214 C   0  0  0  0  0  0  0  0  0  0  0  0
    0.2831    1.7148    9.0793 H   0  0  0  0  0  0  0  0  0  0  0  0
    0.1271    0.4350    7.3549 C   0  0  0  0  0  0  0  0  0  0  0  0
    0.2574    1.2360    6.6410 H   0  0  0  0  0  0  0  0  0  0  0  0
   -0.0572   -0.8767    6.9296 C   0  0  0  0  0  0  0  0  0  0  0  0
   -0.0738   -1.1198    5.8762 H   0  0  0  0  0  0  0  0  0  0  0  0
   -0.2190   -1.8617    7.8985 C   0  0  0  0  0  0  0  0  0  0  0  0
   -0.3656   -2.8969    7.6237 H   0  0  0  0  0  0  0  0  0  0  0  0
   -0.1898   -1.4944    9.2415 C   0  0  0  0  0  0  0  0  0  0  0  0
   -0.3134   -2.2419   10.0156 H   0  0  0  0  0  0  0  0  0  0  0  0
  1 11  1  0  0  0  0
  1  2  1  0  0  0  0
  3  1  2  0  0  0  0
  4  3  1  0  0  0  0
  5  7  2  0  0  0  0
  5  3  1  0  0  0  0
  6  5  1  0  0  0  0
  7  9  1  0  0  0  0
  8  7  1  0  0  0  0
  9 10  1  0  0  0  0
  9 11  2  0  0  0  0
 11 12  1  0  0  0  0
 14 15  1  0  0  0  0
 14 13  2  0  0  0  0
 16 14  1  0  0  0  0
 17 16  1  0  0  0  0
 18 16  2  0  0  0  0
 18 20  1  0  0  0  0
 19 18  1  0  0  0  0
 20 22  2  0  0  0  0
 21 20  1  0  0  0  0
 22 13  1  0  0  0  0
 22 23  1  0  0  0  0
M  END
>  <SMILES>
c1ccccc1.n1ccccc1

>  <MoleculeName>
BenzenePyridineTS200

>  <Distance Scale>
2.0

>  <Energy Value>
-0.33

$$$$
/home/S66X8/2744_06MeOHMeNH2125.xyz
 OpenBabel06262409173D

 13 11  0  0  0  0  0  0  0  0999 V2000
   -0.7069    0.0458    0.0064 O   0  0  0  0  0  0  0  0  0  0  0  0
    0.2656    0.0717    0.0013 H   0  0  0  0  0  0  0  0  0  0  0  0
   -1.0767   -1.3139    0.0016 C   0  0  0  0  0  0  0  0  0  0  0  0
   -2.1629   -1.3632    0.0059 H   0  0  0  0  0  0  0  0  0  0  0  0
   -0.7234   -1.8447   -0.8877 H   0  0  0  0  0  0  0  0  0  0  0  0
   -0.7161   -1.8528    0.8831 H   0  0  0  0  0  0  0  0  0  0  0  0
    2.7236   -0.0656   -0.0046 N   0  0  0  0  0  0  0  0  0  0  0  0
    3.0942    0.4422    0.7885 H   0  0  0  0  0  0  0  0  0  0  0  0
    3.0943    0.3987   -0.8239 H   0  0  0  0  0  0  0  0  0  0  0  0
    3.2013   -1.4516    0.0329 C   0  0  0  0  0  0  0  0  0  0  0  0
    2.8095   -1.9857   -0.8293 H   0  0  0  0  0  0  0  0  0  0  0  0
    4.2880   -1.5584    0.0359 H   0  0  0  0  0  0  0  0  0  0  0  0
    2.8092   -1.9384    0.9225 H   0  0  0  0  0  0  0  0  0  0  0  0
  2  1  1  0  0  0  0
  3  4  1  0  0  0  0
  3  1  1  0  0  0  0
  3  6  1  0  0  0  0
  5  3  1  0  0  0  0
  7 10  1  0  0  0  0
  7  8  1  0  0  0  0
  9  7  1  0  0  0  0
 10 12  1  0  0  0  0
 10 13  1  0  0  0  0
 11 10  1  0  0  0  0
M  END
>  <SMILES>
OC.NC

>  <MoleculeName>
MeOHMeNH2125

>  <Distance Scale>
1.25

>  <Energy Value>
-5.5

$$$$
/home/S66X8/3138_55BenzeneMeOHOHpi200.xyz
 OpenBabel06262409173D

 18 17  0  0  0  0  0  0  0  0999 V2000
    0.7597    1.0313    0.3738 C   0  0  0  0  0  0  0  0  0  0  0  0
    1.4350    1.8757    0.3747 H   0  0  0  0  0  0  0  0  0  0  0  0
    1.2666   -0.2674    0.4213 C   0  0  0  0  0  0  0  0  0  0  0  0
    2.3349   -0.4292    0.4594 H   0  0  0  0  0  0  0  0  0  0  0  0
    0.3953   -1.3560    0.4249 C   0  0  0  0  0  0  0  0  0  0  0  0
    0.7887   -2.3625    0.4630 H   0  0  0  0  0  0  0  0  0  0  0  0
   -0.9822   -1.1467    0.3813 C   0  0  0  0  0  0  0  0  0  0  0  0
   -1.6577   -1.9911    0.3851 H   0  0  0  0  0  0  0  0  0  0  0  0
   -1.4893    0.1511    0.3376 C   0  0  0  0  0  0  0  0  0  0  0  0
   -2.5579    0.3138    0.3077 H   0  0  0  0  0  0  0  0  0  0  0  0
   -0.6188    1.2403    0.3339 C   0  0  0  0  0  0  0  0  0  0  0  0
   -1.0118    2.2471    0.3044 H   0  0  0  0  0  0  0  0  0  0  0  0
   -0.1663    0.1872    6.2701 O   0  0  0  0  0  0  0  0  0  0  0  0
   -0.0802    0.2371    5.3129 H   0  0  0  0  0  0  0  0  0  0  0  0
   -1.0624   -0.8704    6.5531 C   0  0  0  0  0  0  0  0  0  0  0  0
   -1.1581   -0.9271    7.6341 H   0  0  0  0  0  0  0  0  0  0  0  0
   -2.0546   -0.6987    6.1293 H   0  0  0  0  0  0  0  0  0  0  0  0
   -0.6959   -1.8334    6.1902 H   0  0  0  0  0  0  0  0  0  0  0  0
  1  2  1  0  0  0  0
  1  3  1  0  0  0  0
  3  5  2  0  0  0  0
  3  4  1  0  0  0  0
  5  6  1  0  0  0  0
  7  8  1  0  0  0  0
  7  5  1  0  0  0  0
  9  7  2  0  0  0  0
 10  9  1  0  0  0  0
 11  9  1  0  0  0  0
 11  1  2  0  0  0  0
 12 11  1  0  0  0  0
 13 15  1  0  0  0  0
 14 13  1  0  0  0  0
 15 16  1  0  0  0  0
 17 15  1  0  0  0  0
 18 15  1  0  0  0  0
M  END
>  <SMILES>
c1ccccc1.OC

>  <MoleculeName>
BenzeneMeOHOHpi200

>  <Distance Scale>
2.0

>  <Energy Value>
-0.52

$$$$
/home/S66X8/3074_47BenzeneBenzeneTS200.xyz
 OpenBabel06262409173D

 24 24  0  0  0  0  0  0  0  0999 V2000
    0.7292    1.1131    0.3267 C   0  0  0  0  0  0  0  0  0  0  0  0
    1.3032    2.0142    0.1592 H   0  0  0  0  0  0  0  0  0  0  0  0
    1.3751   -0.1194    0.4128 C   0  0  0  0  0  0  0  0  0  0  0  0
    2.4505   -0.1746    0.3133 H   0  0  0  0  0  0  0  0  0  0  0  0
    0.6350   -1.2806    0.6294 C   0  0  0  0  0  0  0  0  0  0  0  0
    1.1363   -2.2360    0.7002 H   0  0  0  0  0  0  0  0  0  0  0  0
   -0.7510   -1.2097    0.7579 C   0  0  0  0  0  0  0  0  0  0  0  0
   -1.3245   -2.1114    0.9242 H   0  0  0  0  0  0  0  0  0  0  0  0
   -1.3970    0.0227    0.6731 C   0  0  0  0  0  0  0  0  0  0  0  0
   -2.4724    0.0785    0.7740 H   0  0  0  0  0  0  0  0  0  0  0  0
   -0.6569    1.1843    0.4583 C   0  0  0  0  0  0  0  0  0  0  0  0
   -1.1578    2.1406    0.3951 H   0  0  0  0  0  0  0  0  0  0  0  0
    0.4963    0.6485    6.9811 C   0  0  0  0  0  0  0  0  0  0  0  0
    0.6185    0.8739    5.9306 H   0  0  0  0  0  0  0  0  0  0  0  0
   -0.5948   -0.1064    7.4084 C   0  0  0  0  0  0  0  0  0  0  0  0
   -1.3153   -0.4629    6.6847 H   0  0  0  0  0  0  0  0  0  0  0  0
   -0.7555   -0.4006    8.7614 C   0  0  0  0  0  0  0  0  0  0  0  0
   -1.6026   -0.9865    9.0916 H   0  0  0  0  0  0  0  0  0  0  0  0
    0.1764    0.0605    9.6898 C   0  0  0  0  0  0  0  0  0  0  0  0
    0.0525   -0.1675   10.7399 H   0  0  0  0  0  0  0  0  0  0  0  0
    1.2680    0.8156    9.2646 C   0  0  0  0  0  0  0  0  0  0  0  0
    1.9911    1.1734    9.9850 H   0  0  0  0  0  0  0  0  0  0  0  0
    1.4268    1.1091    7.9111 C   0  0  0  0  0  0  0  0  0  0  0  0
    2.2741    1.6952    7.5811 H   0  0  0  0  0  0  0  0  0  0  0  0
  1  3  2  0  0  0  0
  1 11  1  0  0  0  0
  2  1  1  0  0  0  0
  3  5  1  0  0  0  0
  4  3  1  0  0  0  0
  5  6  1  0  0  0  0
  5  7  2  0  0  0  0
  7  8  1  0  0  0  0
  9  7  1  0  0  0  0
  9 10  1  0  0  0  0
 11  9  2  0  0  0  0
 12 11  1  0  0  0  0
 13 15  2  0  0  0  0
 13 23  1  0  0  0  0
 14 13  1  0  0  0  0
 15 17  1  0  0  0  0
 16 15  1  0  0  0  0
 17 18  1  0  0  0  0
 17 19  2  0  0  0  0
 19 20  1  0  0  0  0
 21 19  1  0  0  0  0
 21 22  1  0  0  0  0
 23 21  2  0  0  0  0
 24 23  1  0  0  0  0
M  END
>  <SMILES>
c1ccccc1.c1ccccc1

>  <MoleculeName>
BenzeneBenzeneTS200

>  <Distance Scale>
2.0

>  <Energy Value>
-0.22

$$$$
/home/S66X8/2877_23AcNH2Uracil100.xyz
 OpenBabel06262409173D

 21 20  0  0  0  0  0  0  0  0999 V2000
   -1.2327    1.2116   -0.1416 C   0  0  0  0  0  0  0  0  0  0  0  0
   -0.5713    2.2420    0.0256 O   0  0  0  0  0  0  0  0  0  0  0  0
   -0.6706    0.0039   -0.3143 N   0  0  0  0  0  0  0  0  0  0  0  0
    0.3438   -0.0906   -0.3083 H   0  0  0  0  0  0  0  0  0  0  0  0
   -1.2442   -0.8063   -0.4467 H   0  0  0  0  0  0  0  0  0  0  0  0
   -2.7382    1.2668   -0.1559 C   0  0  0  0  0  0  0  0  0  0  0  0
   -3.0780    1.6466    0.8045 H   0  0  0  0  0  0  0  0  0  0  0  0
   -3.2021    0.3029   -0.3462 H   0  0  0  0  0  0  0  0  0  0  0  0
   -3.0500    1.9755   -0.9186 H   0  0  0  0  0  0  0  0  0  0  0  0
    4.2007    1.1175   -0.1195 N   0  0  0  0  0  0  0  0  0  0  0  0
    4.6907    0.2416   -0.2374 H   0  0  0  0  0  0  0  0  0  0  0  0
    5.0043    2.2604    0.0310 C   0  0  0  0  0  0  0  0  0  0  0  0
    6.2198    2.1647    0.0158 O   0  0  0  0  0  0  0  0  0  0  0  0
    4.2317    3.4757    0.1942 C   0  0  0  0  0  0  0  0  0  0  0  0
    4.7534    4.4089    0.3172 H   0  0  0  0  0  0  0  0  0  0  0  0
    2.8825    3.4140    0.1885 C   0  0  0  0  0  0  0  0  0  0  0  0
    2.2621    4.2904    0.3062 H   0  0  0  0  0  0  0  0  0  0  0  0
    2.1974    2.2417    0.0339 N   0  0  0  0  0  0  0  0  0  0  0  0
    1.1647    2.2327    0.0331 H   0  0  0  0  0  0  0  0  0  0  0  0
    2.8283    1.0372   -0.1284 C   0  0  0  0  0  0  0  0  0  0  0  0
    2.2311   -0.0267   -0.2702 O   0  0  0  0  0  0  0  0  0  0  0  0
  1  2  2  0  0  0  0
  3  4  1  0  0  0  0
  3  1  1  0  0  0  0
  5  3  1  0  0  0  0
  6  1  1  0  0  0  0
  6  7  1  0  0  0  0
  8  6  1  0  0  0  0
  9  6  1  0  0  0  0
 10 12  1  0  0  0  0
 11 10  1  0  0  0  0
 12 14  1  0  0  0  0
 13 12  2  0  0  0  0
 14 15  1  0  0  0  0
 16 14  2  0  0  0  0
 16 17  1  0  0  0  0
 18 16  1  0  0  0  0
 19 18  1  0  0  0  0
 20 10  1  0  0  0  0
 20 18  1  0  0  0  0
 21 20  2  0  0  0  0
M  END
>  <SMILES>
C(=O)(N)C.[nH]1c(=O)cc[nH]c1=O

>  <MoleculeName>
AcNH2Uracil100

>  <Distance Scale>
1.0

>  <Energy Value>
-19.19

$$$$
/home/S66X8/2715_03WaterMeNH2090.xyz
 OpenBabel06262409173D

 10  8  0  0  0  0  0  0  0  0999 V2000
   -0.6875   -0.1117   -0.0196 O   0  0  0  0  0  0  0  0  0  0  0  0
   -1.0461    0.7759    0.0127 H   0  0  0  0  0  0  0  0  0  0  0  0
    0.2740    0.0259   -0.0035 H   0  0  0  0  0  0  0  0  0  0  0  0
    2.0835    0.0972    0.0051 N   0  0  0  0  0  0  0  0  0  0  0  0
    2.3788   -0.4554   -0.7897 H   0  0  0  0  0  0  0  0  0  0  0  0
    2.3936   -0.4135    0.8220 H   0  0  0  0  0  0  0  0  0  0  0  0
    2.7428    1.4056   -0.0351 C   0  0  0  0  0  0  0  0  0  0  0  0
    2.4323    1.9873    0.8294 H   0  0  0  0  0  0  0  0  0  0  0  0
    3.8341    1.3663   -0.0441 H   0  0  0  0  0  0  0  0  0  0  0  0
    2.4161    1.9415   -0.9229 H   0  0  0  0  0  0  0  0  0  0  0  0
  1  3  1  0  0  0  0
  1  2  1  0  0  0  0
  4  6  1  0  0  0  0
  5  4  1  0  0  0  0
  7  4  1  0  0  0  0
  7  8  1  0  0  0  0
  9  7  1  0  0  0  0
 10  7  1  0  0  0  0
M  END
>  <SMILES>
O.NC

>  <MoleculeName>
WaterMeNH2090

>  <Distance Scale>
0.9

>  <Energy Value>
-6.49

$$$$
/home/S66X8/2918_28BenzeneUracilpipi105.xyz
 OpenBabel06262409173D

 24 24  0  0  0  0  0  0  0  0999 V2000
    0.8258    1.2365   -0.0403 C   0  0  0  0  0  0  0  0  0  0  0  0
    1.5210    2.0631   -0.0825 H   0  0  0  0  0  0  0  0  0  0  0  0
    1.3002   -0.0629    0.1273 C   0  0  0  0  0  0  0  0  0  0  0  0
    2.3637   -0.2423    0.2077 H   0  0  0  0  0  0  0  0  0  0  0  0
    0.4035   -1.1286    0.1982 C   0  0  0  0  0  0  0  0  0  0  0  0
    0.7738   -2.1374    0.3241 H   0  0  0  0  0  0  0  0  0  0  0  0
   -0.9678   -0.8952    0.1031 C   0  0  0  0  0  0  0  0  0  0  0  0
   -1.6652   -1.7200    0.1604 H   0  0  0  0  0  0  0  0  0  0  0  0
   -1.4435    0.4045   -0.0624 C   0  0  0  0  0  0  0  0  0  0  0  0
   -2.5075    0.5855   -0.1242 H   0  0  0  0  0  0  0  0  0  0  0  0
   -0.5458    1.4688   -0.1362 C   0  0  0  0  0  0  0  0  0  0  0  0
   -0.9142    2.4774   -0.2679 H   0  0  0  0  0  0  0  0  0  0  0  0
   -0.2700    0.6577    3.3488 N   0  0  0  0  0  0  0  0  0  0  0  0
   -0.6433    1.5595    3.0859 H   0  0  0  0  0  0  0  0  0  0  0  0
    1.1222    0.5847    3.4808 C   0  0  0  0  0  0  0  0  0  0  0  0
    1.8131    1.5792    3.3360 O   0  0  0  0  0  0  0  0  0  0  0  0
    1.6011   -0.7493    3.7989 C   0  0  0  0  0  0  0  0  0  0  0  0
    2.6581   -0.9015    3.9330 H   0  0  0  0  0  0  0  0  0  0  0  0
    0.7214   -1.7637    3.9251 C   0  0  0  0  0  0  0  0  0  0  0  0
    1.0273   -2.7721    4.1617 H   0  0  0  0  0  0  0  0  0  0  0  0
   -0.6239   -1.5787    3.7550 N   0  0  0  0  0  0  0  0  0  0  0  0
   -1.2726   -2.3412    3.8539 H   0  0  0  0  0  0  0  0  0  0  0  0
   -1.1983   -0.3539    3.4556 C   0  0  0  0  0  0  0  0  0  0  0  0
   -2.3961   -0.2031    3.3135 O   0  0  0  0  0  0  0  0  0  0  0  0
  1  3  1  0  0  0  0
  2  1  1  0  0  0  0
  3  5  2  0  0  0  0
  3  4  1  0  0  0  0
  5  6  1  0  0  0  0
  7  8  1  0  0  0  0
  7  5  1  0  0  0  0
  9  7  2  0  0  0  0
 10  9  1  0  0  0  0
 11  9  1  0  0  0  0
 11  1  2  0  0  0  0
 12 11  1  0  0  0  0
 13 23  1  0  0  0  0
 13 15  1  0  0  0  0
 14 13  1  0  0  0  0
 15 17  1  0  0  0  0
 16 15  2  0  0  0  0
 17 19  2  0  0  0  0
 17 18  1  0  0  0  0
 19 20  1  0  0  0  0
 21 22  1  0  0  0  0
 21 19  1  0  0  0  0
 23 21  1  0  0  0  0
 24 23  2  0  0  0  0
M  END
>  <SMILES>
c1ccccc1.[nH]1c(=O)cc[nH]c1=O

>  <MoleculeName>
BenzeneUracilpipi105

>  <Distance Scale>
1.05

>  <Energy Value>
-5.55

$$$$
/home/S66X8/2765_09MeNH2MeOH100.xyz
 OpenBabel06262409173D

 13 11  0  0  0  0  0  0  0  0999 V2000
   -0.8935   -0.0438   -0.0430 N   0  0  0  0  0  0  0  0  0  0  0  0
    0.0969   -0.2561   -0.0711 H   0  0  0  0  0  0  0  0  0  0  0  0
   -1.3684   -0.9334    0.0338 H   0  0  0  0  0  0  0  0  0  0  0  0
   -1.1758    0.7579    1.1452 C   0  0  0  0  0  0  0  0  0  0  0  0
   -2.2416    0.9722    1.1950 H   0  0  0  0  0  0  0  0  0  0  0  0
   -0.8808    0.3042    2.0972 H   0  0  0  0  0  0  0  0  0  0  0  0
   -0.6630    1.7143    1.0608 H   0  0  0  0  0  0  0  0  0  0  0  0
    2.3470   -0.0415    0.0307 O   0  0  0  0  0  0  0  0  0  0  0  0
    2.6291    0.3284   -0.8092 H   0  0  0  0  0  0  0  0  0  0  0  0
    2.7329    0.8701    1.0501 C   0  0  0  0  0  0  0  0  0  0  0  0
    2.4098    0.4404    1.9932 H   0  0  0  0  0  0  0  0  0  0  0  0
    3.8140    1.0092    1.0891 H   0  0  0  0  0  0  0  0  0  0  0  0
    2.2545    1.8437    0.9349 H   0  0  0  0  0  0  0  0  0  0  0  0
  1  3  1  0  0  0  0
  1  4  1  0  0  0  0
  2  1  1  0  0  0  0
  4  5  1  0  0  0  0
  4  6  1  0  0  0  0
  7  4  1  0  0  0  0
  8 10  1  0  0  0  0
  9  8  1  0  0  0  0
 10 12  1  0  0  0  0
 10 11  1  0  0  0  0
 13 10  1  0  0  0  0
M  END
>  <SMILES>
NC.OC

>  <MoleculeName>
MeNH2MeOH100

>  <Distance Scale>
1.0

>  <Energy Value>
-3.04

$$$$
/home/S66X8/3200_63BenzeneAcOH125.xyz
 OpenBabel06262409173D

 20 19  0  0  0  0  0  0  0  0999 V2000
    0.6068    1.3304    0.3164 C   0  0  0  0  0  0  0  0  0  0  0  0
    1.2465    2.2023    0.3304 H   0  0  0  0  0  0  0  0  0  0  0  0
    1.1181    0.0872    0.6851 C   0  0  0  0  0  0  0  0  0  0  0  0
    2.1501   -0.0039    0.9938 H   0  0  0  0  0  0  0  0  0  0  0  0
    0.2929   -1.0361    0.6691 C   0  0  0  0  0  0  0  0  0  0  0  0
    0.6885   -2.0010    0.9554 H   0  0  0  0  0  0  0  0  0  0  0  0
   -1.0428   -0.9167    0.2882 C   0  0  0  0  0  0  0  0  0  0  0  0
   -1.6827   -1.7885    0.2793 H   0  0  0  0  0  0  0  0  0  0  0  0
   -1.5536    0.3273   -0.0799 C   0  0  0  0  0  0  0  0  0  0  0  0
   -2.5892    0.4203   -0.3773 H   0  0  0  0  0  0  0  0  0  0  0  0
   -0.7280    1.4508   -0.0668 C   0  0  0  0  0  0  0  0  0  0  0  0
   -1.1236    2.4157   -0.3539 H   0  0  0  0  0  0  0  0  0  0  0  0
    0.3340   -0.1470    4.7758 C   0  0  0  0  0  0  0  0  0  0  0  0
    1.5295    0.0170    4.8523 O   0  0  0  0  0  0  0  0  0  0  0  0
   -0.2455   -1.3584    4.9752 O   0  0  0  0  0  0  0  0  0  0  0  0
    0.4890   -1.9595    5.1683 H   0  0  0  0  0  0  0  0  0  0  0  0
   -0.6879    0.8970    4.4551 C   0  0  0  0  0  0  0  0  0  0  0  0
   -0.2096    1.8679    4.4083 H   0  0  0  0  0  0  0  0  0  0  0  0
   -1.1407    0.6638    3.4924 H   0  0  0  0  0  0  0  0  0  0  0  0
   -1.4727    0.8914    5.2076 H   0  0  0  0  0  0  0  0  0  0  0  0
  1  2  1  0  0  0  0
  1  3  1  0  0  0  0
  3  4  1  0  0  0  0
  5  3  2  0  0  0  0
  5  6  1  0  0  0  0
  7  5  1  0  0  0  0
  8  7  1  0  0  0  0
  9 11  1  0  0  0  0
  9  7  2  0  0  0  0
 10  9  1  0  0  0  0
 11  1  2  0  0  0  0
 12 11  1  0  0  0  0
 13 14  2  0  0  0  0
 13 15  1  0  0  0  0
 15 16  1  0  0  0  0
 17 13  1  0  0  0  0
 17 20  1  0  0  0  0
 18 17  1  0  0  0  0
 19 17  1  0  0  0  0
M  END
>  <SMILES>
c1ccccc1.C(=O)(O)C

>  <MoleculeName>
BenzeneAcOH125

>  <Distance Scale>
1.25

>  <Energy Value>
-2.24

$$$$
/home/S66X8/2968_34PentanePentane125.xyz
 OpenBabel06262409173D

 34 32  0  0  0  0  0  0  0  0999 V2000
   -2.5333   -0.2949    0.7131 C   0  0  0  0  0  0  0  0  0  0  0  0
   -2.5636   -0.9771   -0.1364 H   0  0  0  0  0  0  0  0  0  0  0  0
   -2.5670   -0.8959    1.6217 H   0  0  0  0  0  0  0  0  0  0  0  0
   -3.4344    0.3160    0.6841 H   0  0  0  0  0  0  0  0  0  0  0  0
   -1.2719    0.5577    0.6744 C   0  0  0  0  0  0  0  0  0  0  0  0
   -1.2710    1.2566    1.5143 H   0  0  0  0  0  0  0  0  0  0  0  0
   -1.2666    1.1679   -0.2318 H   0  0  0  0  0  0  0  0  0  0  0  0
   -0.0001   -0.2784    0.7196 C   0  0  0  0  0  0  0  0  0  0  0  0
   -0.0002   -0.8872    1.6286 H   0  0  0  0  0  0  0  0  0  0  0  0
   -0.0004   -0.9807   -0.1194 H   0  0  0  0  0  0  0  0  0  0  0  0
    1.2719    0.5574    0.6741 C   0  0  0  0  0  0  0  0  0  0  0  0
    1.2710    1.2566    1.5137 H   0  0  0  0  0  0  0  0  0  0  0  0
    1.2666    1.1672   -0.2324 H   0  0  0  0  0  0  0  0  0  0  0  0
    2.5334   -0.2949    0.7133 C   0  0  0  0  0  0  0  0  0  0  0  0
    2.5639   -0.9778   -0.1358 H   0  0  0  0  0  0  0  0  0  0  0  0
    3.4343    0.3163    0.6836 H   0  0  0  0  0  0  0  0  0  0  0  0
    2.5676   -0.8952    1.6223 H   0  0  0  0  0  0  0  0  0  0  0  0
    2.5336    0.2803    5.2371 C   0  0  0  0  0  0  0  0  0  0  0  0
    2.5681    0.8801    4.3278 H   0  0  0  0  0  0  0  0  0  0  0  0
    2.5641    0.9635    6.0859 H   0  0  0  0  0  0  0  0  0  0  0  0
    3.4342   -0.3312    5.2674 H   0  0  0  0  0  0  0  0  0  0  0  0
    1.2717   -0.5716    5.2765 C   0  0  0  0  0  0  0  0  0  0  0  0
    1.2663   -1.1813    6.1829 H   0  0  0  0  0  0  0  0  0  0  0  0
    1.2706   -1.2710    4.4369 H   0  0  0  0  0  0  0  0  0  0  0  0
   -0.0000    0.2645    5.2308 C   0  0  0  0  0  0  0  0  0  0  0  0
   -0.0002    0.9668    6.0698 H   0  0  0  0  0  0  0  0  0  0  0  0
    0.0000    0.8733    4.3218 H   0  0  0  0  0  0  0  0  0  0  0  0
   -1.2718   -0.5717    5.2761 C   0  0  0  0  0  0  0  0  0  0  0  0
   -1.2664   -1.1818    6.1824 H   0  0  0  0  0  0  0  0  0  0  0  0
   -1.2707   -1.2707    4.4362 H   0  0  0  0  0  0  0  0  0  0  0  0
   -2.5335    0.2804    5.2371 C   0  0  0  0  0  0  0  0  0  0  0  0
   -2.5677    0.8809    4.3283 H   0  0  0  0  0  0  0  0  0  0  0  0
   -3.4343   -0.3309    5.2666 H   0  0  0  0  0  0  0  0  0  0  0  0
   -2.5641    0.9630    6.0864 H   0  0  0  0  0  0  0  0  0  0  0  0
  1  3  1  0  0  0  0
  2  1  1  0  0  0  0
  4  1  1  0  0  0  0
  5  1  1  0  0  0  0
  5  8  1  0  0  0  0
  5  6  1  0  0  0  0
  7  5  1  0  0  0  0
  8  9  1  0  0  0  0
 10  8  1  0  0  0  0
 11 14  1  0  0  0  0
 11  8  1  0  0  0  0
 11 12  1  0  0  0  0
 13 11  1  0  0  0  0
 14 17  1  0  0  0  0
 15 14  1  0  0  0  0
 16 14  1  0  0  0  0
 18 21  1  0  0  0  0
 18 22  1  0  0  0  0
 18 20  1  0  0  0  0
 19 18  1  0  0  0  0
 22 23  1  0  0  0  0
 24 22  1  0  0  0  0
 25 28  1  0  0  0  0
 25 22  1  0  0  0  0
 25 26  1  0  0  0  0
 27 25  1  0  0  0  0
 28 29  1  0  0  0  0
 30 28  1  0  0  0  0
 31 33  1  0  0  0  0
 31 28  1  0  0  0  0
 31 34  1  0  0  0  0
 32 31  1  0  0  0  0
M  END
>  <SMILES>
CCCCC.CCCCC

>  <MoleculeName>
PentanePentane125

>  <Distance Scale>
1.25

>  <Energy Value>
-2.24

$$$$
/home/S66X8/3078_48PyridinePyridineTS105.xyz
 OpenBabel06262409173D

 22 22  0  0  0  0  0  0  0  0999 V2000
    1.3228   -0.0104    1.0192 N   0  0  0  0  0  0  0  0  0  0  0  0
    0.6513   -1.1490    0.7968 C   0  0  0  0  0  0  0  0  0  0  0  0
    1.2004   -2.0655    0.9737 H   0  0  0  0  0  0  0  0  0  0  0  0
   -0.6727   -1.1947    0.3667 C   0  0  0  0  0  0  0  0  0  0  0  0
   -1.1572   -2.1473    0.2065 H   0  0  0  0  0  0  0  0  0  0  0  0
   -1.3472    0.0031    0.1521 C   0  0  0  0  0  0  0  0  0  0  0  0
   -2.3754    0.0084   -0.1823 H   0  0  0  0  0  0  0  0  0  0  0  0
   -0.6646    1.1941    0.3790 C   0  0  0  0  0  0  0  0  0  0  0  0
   -1.1426    2.1516    0.2287 H   0  0  0  0  0  0  0  0  0  0  0  0
    0.6589    1.1350    0.8089 C   0  0  0  0  0  0  0  0  0  0  0  0
    1.2141    2.0459    0.9954 H   0  0  0  0  0  0  0  0  0  0  0  0
    0.4151    0.0006    6.8996 N   0  0  0  0  0  0  0  0  0  0  0  0
    1.2857   -0.0050    5.8802 C   0  0  0  0  0  0  0  0  0  0  0  0
    2.3336   -0.0038    6.1545 H   0  0  0  0  0  0  0  0  0  0  0  0
    0.9123   -0.0121    4.5384 C   0  0  0  0  0  0  0  0  0  0  0  0
    1.6598   -0.0162    3.7573 H   0  0  0  0  0  0  0  0  0  0  0  0
   -0.4437   -0.0135    4.2260 C   0  0  0  0  0  0  0  0  0  0  0  0
   -0.7734   -0.0189    3.1957 H   0  0  0  0  0  0  0  0  0  0  0  0
   -1.3618   -0.0078    5.2711 C   0  0  0  0  0  0  0  0  0  0  0  0
   -2.4263   -0.0086    5.0824 H   0  0  0  0  0  0  0  0  0  0  0  0
   -0.8862   -0.0009    6.5801 C   0  0  0  0  0  0  0  0  0  0  0  0
   -1.5784    0.0037    7.4133 H   0  0  0  0  0  0  0  0  0  0  0  0
  2  3  1  0  0  0  0
  2  1  2  0  0  0  0
  4  2  1  0  0  0  0
  5  4  1  0  0  0  0
  6  4  2  0  0  0  0
  6  8  1  0  0  0  0
  7  6  1  0  0  0  0
  8 10  2  0  0  0  0
  9  8  1  0  0  0  0
 10 11  1  0  0  0  0
 10  1  1  0  0  0  0
 13 14  1  0  0  0  0
 13 12  2  0  0  0  0
 15 13  1  0  0  0  0
 16 15  1  0  0  0  0
 17 15  2  0  0  0  0
 17 19  1  0  0  0  0
 18 17  1  0  0  0  0
 19 21  2  0  0  0  0
 20 19  1  0  0  0  0
 21 12  1  0  0  0  0
 21 22  1  0  0  0  0
M  END
>  <SMILES>
n1ccccc1.n1ccccc1

>  <MoleculeName>
PyridinePyridineTS105

>  <Distance Scale>
1.05

>  <Energy Value>
-3.45

$$$$
/home/S66X8/2809_14PeptideMeNH2150.xyz
 OpenBabel06262409173D

 19 17  0  0  0  0  0  0  0  0999 V2000
   -0.7786   -0.4633    2.4904 C   0  0  0  0  0  0  0  0  0  0  0  0
    0.2247   -0.0510    2.4135 H   0  0  0  0  0  0  0  0  0  0  0  0
   -0.7225   -1.4871    2.8546 H   0  0  0  0  0  0  0  0  0  0  0  0
   -1.3519    0.1108    3.2137 H   0  0  0  0  0  0  0  0  0  0  0  0
   -1.5205   -0.4566    1.1723 C   0  0  0  0  0  0  0  0  0  0  0  0
   -2.7008   -0.7836    1.0896 O   0  0  0  0  0  0  0  0  0  0  0  0
   -0.7920   -0.0696    0.1006 N   0  0  0  0  0  0  0  0  0  0  0  0
    0.1941    0.1457    0.2029 H   0  0  0  0  0  0  0  0  0  0  0  0
   -1.3978   -0.0561   -1.2113 C   0  0  0  0  0  0  0  0  0  0  0  0
   -2.3149    0.5289   -1.1997 H   0  0  0  0  0  0  0  0  0  0  0  0
   -0.6988    0.3873   -1.9154 H   0  0  0  0  0  0  0  0  0  0  0  0
   -1.6530   -1.0615   -1.5454 H   0  0  0  0  0  0  0  0  0  0  0  0
    3.2861    0.3104    0.3233 N   0  0  0  0  0  0  0  0  0  0  0  0
    3.6897    0.8503    1.0785 H   0  0  0  0  0  0  0  0  0  0  0  0
    3.7041    0.6778   -0.5223 H   0  0  0  0  0  0  0  0  0  0  0  0
    3.6584   -1.1008    0.4771 C   0  0  0  0  0  0  0  0  0  0  0  0
    3.2321   -1.6718   -0.3443 H   0  0  0  0  0  0  0  0  0  0  0  0
    4.7338   -1.2875    0.5029 H   0  0  0  0  0  0  0  0  0  0  0  0
    3.2239   -1.4852    1.3969 H   0  0  0  0  0  0  0  0  0  0  0  0
  1  3  1  0  0  0  0
  1  4  1  0  0  0  0
  2  1  1  0  0  0  0
  5  1  1  0  0  0  0
  6  5  2  0  0  0  0
  7  8  1  0  0  0  0
  7  5  1  0  0  0  0
  9 10  1  0  0  0  0
  9  7  1  0  0  0  0
 11  9  1  0  0  0  0
 12  9  1  0  0  0  0
 13 16  1  0  0  0  0
 13 14  1  0  0  0  0
 15 13  1  0  0  0  0
 16 18  1  0  0  0  0
 16 19  1  0  0  0  0
 17 16  1  0  0  0  0
M  END
>  <SMILES>
CC(=O)NC.NC

>  <MoleculeName>
PeptideMeNH2150

>  <Distance Scale>
1.5

>  <Energy Value>
-3.55

$$$$
/home/S66X8/3147_57BenzenePeptideNHpi090.xyz
 OpenBabel06262409173D

 24 23  0  0  0  0  0  0  0  0999 V2000
    0.4088    1.0510    0.3755 C   0  0  0  0  0  0  0  0  0  0  0  0
    1.0119    1.9485    0.3681 H   0  0  0  0  0  0  0  0  0  0  0  0
    1.0192   -0.1998    0.2891 C   0  0  0  0  0  0  0  0  0  0  0  0
    2.0956   -0.2718    0.2172 H   0  0  0  0  0  0  0  0  0  0  0  0
    0.2417   -1.3569    0.2967 C   0  0  0  0  0  0  0  0  0  0  0  0
    0.7152   -2.3266    0.2281 H   0  0  0  0  0  0  0  0  0  0  0  0
   -1.1462   -1.2643    0.3939 C   0  0  0  0  0  0  0  0  0  0  0  0
   -1.7492   -2.1619    0.3994 H   0  0  0  0  0  0  0  0  0  0  0  0
   -1.7573   -0.0140    0.4830 C   0  0  0  0  0  0  0  0  0  0  0  0
   -2.8335    0.0582    0.5590 H   0  0  0  0  0  0  0  0  0  0  0  0
   -0.9797    1.1442    0.4723 C   0  0  0  0  0  0  0  0  0  0  0  0
   -1.4541    2.1140    0.5371 H   0  0  0  0  0  0  0  0  0  0  0  0
    0.2395    1.9425    3.9257 C   0  0  0  0  0  0  0  0  0  0  0  0
   -0.1187    2.1083    2.9124 H   0  0  0  0  0  0  0  0  0  0  0  0
    1.2641    2.2992    4.0071 H   0  0  0  0  0  0  0  0  0  0  0  0
   -0.3646    2.5162    4.6240 H   0  0  0  0  0  0  0  0  0  0  0  0
    0.2026    0.4894    4.3414 C   0  0  0  0  0  0  0  0  0  0  0  0
    0.4873    0.1370    5.4799 O   0  0  0  0  0  0  0  0  0  0  0  0
   -0.1698   -0.3764    3.3621 N   0  0  0  0  0  0  0  0  0  0  0  0
   -0.3309   -0.0184    2.4361 H   0  0  0  0  0  0  0  0  0  0  0  0
   -0.2066   -1.8032    3.5802 C   0  0  0  0  0  0  0  0  0  0  0  0
   -0.1285   -1.9701    4.6502 H   0  0  0  0  0  0  0  0  0  0  0  0
   -1.1418   -2.2216    3.2135 H   0  0  0  0  0  0  0  0  0  0  0  0
    0.6226   -2.3071    3.0829 H   0  0  0  0  0  0  0  0  0  0  0  0
  1 11  1  0  0  0  0
  2  1  1  0  0  0  0
  3  5  1  0  0  0  0
  3  1  2  0  0  0  0
  4  3  1  0  0  0  0
  5  7  2  0  0  0  0
  6  5  1  0  0  0  0
  7  8  1  0  0  0  0
  7  9  1  0  0  0  0
  9 10  1  0  0  0  0
 11  9  2  0  0  0  0
 11 12  1  0  0  0  0
 13 15  1  0  0  0  0
 13 17  1  0  0  0  0
 13 16  1  0  0  0  0
 14 13  1  0  0  0  0
 17 18  2  0  0  0  0
 19 21  1  0  0  0  0
 19 17  1  0  0  0  0
 20 19  1  0  0  0  0
 21 22  1  0  0  0  0
 23 21  1  0  0  0  0
 24 21  1  0  0  0  0
M  END
>  <SMILES>
c1ccccc1.CC(=O)NC

>  <MoleculeName>
BenzenePeptideNHpi090

>  <Distance Scale>
0.9

>  <Energy Value>
-3.75

$$$$
/home/S66X8/2776_10MeNH2MeNH2125.xyz
 OpenBabel06262409173D

 14 12  0  0  0  0  0  0  0  0999 V2000
   -0.6386    0.4709    0.0446 N   0  0  0  0  0  0  0  0  0  0  0  0
    0.1900   -0.1139   -0.0058 H   0  0  0  0  0  0  0  0  0  0  0  0
   -1.3005    0.0813   -0.6137 H   0  0  0  0  0  0  0  0  0  0  0  0
   -1.1987    0.3914    1.3919 C   0  0  0  0  0  0  0  0  0  0  0  0
   -2.0927    1.0092    1.4532 H   0  0  0  0  0  0  0  0  0  0  0  0
   -1.4627   -0.6158    1.7295 H   0  0  0  0  0  0  0  0  0  0  0  0
   -0.4803    0.7987    2.1011 H   0  0  0  0  0  0  0  0  0  0  0  0
    2.9909   -0.5471    0.2514 N   0  0  0  0  0  0  0  0  0  0  0  0
    3.2871   -0.2725   -0.6766 H   0  0  0  0  0  0  0  0  0  0  0  0
    3.6144   -1.2948    0.5266 H   0  0  0  0  0  0  0  0  0  0  0  0
    3.1511    0.5881    1.1651 C   0  0  0  0  0  0  0  0  0  0  0  0
    2.8809    0.2735    2.1707 H   0  0  0  0  0  0  0  0  0  0  0  0
    4.1585    1.0099    1.2020 H   0  0  0  0  0  0  0  0  0  0  0  0
    2.4586    1.3739    0.8724 H   0  0  0  0  0  0  0  0  0  0  0  0
  1  4  1  0  0  0  0
  2  1  1  0  0  0  0
  3  1  1  0  0  0  0
  4  5  1  0  0  0  0
  4  6  1  0  0  0  0
  4  7  1  0  0  0  0
  8 10  1  0  0  0  0
  8 11  1  0  0  0  0
  9  8  1  0  0  0  0
 11 13  1  0  0  0  0
 11 12  1  0  0  0  0
 14 11  1  0  0  0  0
M  END
>  <SMILES>
NC.NC

>  <MoleculeName>
MeNH2MeNH2125

>  <Distance Scale>
1.25

>  <Energy Value>
-2.79

$$$$
/home/S66X8/2855_20AcOHAcOH110.xyz
 OpenBabel06262409173D

 16 14  0  0  0  0  0  0  0  0999 V2000
   -1.0617    1.2971    0.2921 C   0  0  0  0  0  0  0  0  0  0  0  0
   -0.3582    2.2705    0.5318 O   0  0  0  0  0  0  0  0  0  0  0  0
   -0.5893    0.0949    0.0038 O   0  0  0  0  0  0  0  0  0  0  0  0
    0.4044    0.1277    0.0184 H   0  0  0  0  0  0  0  0  0  0  0  0
   -2.5584    1.3425    0.2963 C   0  0  0  0  0  0  0  0  0  0  0  0
   -2.8960    2.3475    0.5183 H   0  0  0  0  0  0  0  0  0  0  0  0
   -2.9329    1.0224   -0.6730 H   0  0  0  0  0  0  0  0  0  0  0  0
   -2.9372    0.6449    1.0396 H   0  0  0  0  0  0  0  0  0  0  0  0
    2.9688    1.1092    0.2726 C   0  0  0  0  0  0  0  0  0  0  0  0
    2.2652    0.1359    0.0328 O   0  0  0  0  0  0  0  0  0  0  0  0
    2.4964    2.3116    0.5603 O   0  0  0  0  0  0  0  0  0  0  0  0
    1.5026    2.2788    0.5459 H   0  0  0  0  0  0  0  0  0  0  0  0
    4.4655    1.0633    0.2706 C   0  0  0  0  0  0  0  0  0  0  0  0
    4.8031    0.0620    0.0331 H   0  0  0  0  0  0  0  0  0  0  0  0
    4.8470    1.7737   -0.4589 H   0  0  0  0  0  0  0  0  0  0  0  0
    4.8370    1.3660    1.2466 H   0  0  0  0  0  0  0  0  0  0  0  0
  1  5  1  0  0  0  0
  1  2  2  0  0  0  0
  3  4  1  0  0  0  0
  3  1  1  0  0  0  0
  5  6  1  0  0  0  0
  5  8  1  0  0  0  0
  7  5  1  0  0  0  0
  9 11  1  0  0  0  0
 10  9  2  0  0  0  0
 12 11  1  0  0  0  0
 13  9  1  0  0  0  0
 13 16  1  0  0  0  0
 14 13  1  0  0  0  0
 15 13  1  0  0  0  0
M  END
>  <SMILES>
C(=O)(O)C.C(=O)(O)C

>  <MoleculeName>
AcOHAcOH110

>  <Distance Scale>
1.1

>  <Energy Value>
-17.94

$$$$
/home/S66X8/3176_60EthyneAcOHOHpi125.xyz
 OpenBabel06262409173D

 12 10  0  0  0  0  0  0  0  0999 V2000
   -0.6106    0.2275   -0.1706 C   0  0  0  0  0  0  0  0  0  0  0  0
    0.1074    0.8614   -0.6342 H   0  0  0  0  0  0  0  0  0  0  0  0
   -1.3863   -0.5253    0.3800 C   0  0  0  0  0  0  0  0  0  0  0  0
   -2.0807   -1.1741    0.8544 H   0  0  0  0  0  0  0  0  0  0  0  0
    3.3805   -0.8841    0.6443 C   0  0  0  0  0  0  0  0  0  0  0  0
    3.1263    0.0720   -0.0545 O   0  0  0  0  0  0  0  0  0  0  0  0
    2.4326   -1.6585    1.2120 O   0  0  0  0  0  0  0  0  0  0  0  0
    1.5716   -1.2912    0.9442 H   0  0  0  0  0  0  0  0  0  0  0  0
    4.7561   -1.3656    0.9945 C   0  0  0  0  0  0  0  0  0  0  0  0
    5.4945   -0.7280    0.5236 H   0  0  0  0  0  0  0  0  0  0  0  0
    4.8824   -1.3537    2.0745 H   0  0  0  0  0  0  0  0  0  0  0  0
    4.8784   -2.3934    0.6612 H   0  0  0  0  0  0  0  0  0  0  0  0
  1  3  3  0  0  0  0
  2  1  1  0  0  0  0
  3  4  1  0  0  0  0
  5  9  1  0  0  0  0
  5  7  1  0  0  0  0
  6  5  2  0  0  0  0
  8  7  1  0  0  0  0
  9 11  1  0  0  0  0
 10  9  1  0  0  0  0
 12  9  1  0  0  0  0
M  END
>  <SMILES>
C#C.C(=O)(O)C

>  <MoleculeName>
EthyneAcOHOHpi125

>  <Distance Scale>
1.25

>  <Energy Value>
-3.26

$$$$
/home/S66X8/2804_14PeptideMeNH2095.xyz
 OpenBabel06262409173D

 19 17  0  0  0  0  0  0  0  0999 V2000
   -0.7786   -0.4633    2.4904 C   0  0  0  0  0  0  0  0  0  0  0  0
    0.2247   -0.0510    2.4135 H   0  0  0  0  0  0  0  0  0  0  0  0
   -0.7225   -1.4871    2.8546 H   0  0  0  0  0  0  0  0  0  0  0  0
   -1.3519    0.1108    3.2137 H   0  0  0  0  0  0  0  0  0  0  0  0
   -1.5205   -0.4566    1.1723 C   0  0  0  0  0  0  0  0  0  0  0  0
   -2.7008   -0.7836    1.0896 O   0  0  0  0  0  0  0  0  0  0  0  0
   -0.7920   -0.0696    0.1006 N   0  0  0  0  0  0  0  0  0  0  0  0
    0.1941    0.1457    0.2029 H   0  0  0  0  0  0  0  0  0  0  0  0
   -1.3978   -0.0561   -1.2113 C   0  0  0  0  0  0  0  0  0  0  0  0
   -2.3149    0.5289   -1.1997 H   0  0  0  0  0  0  0  0  0  0  0  0
   -0.6988    0.3873   -1.9154 H   0  0  0  0  0  0  0  0  0  0  0  0
   -1.6530   -1.0615   -1.5454 H   0  0  0  0  0  0  0  0  0  0  0  0
    2.1524    0.2500    0.2792 N   0  0  0  0  0  0  0  0  0  0  0  0
    2.5561    0.7899    1.0344 H   0  0  0  0  0  0  0  0  0  0  0  0
    2.5704    0.6174   -0.5665 H   0  0  0  0  0  0  0  0  0  0  0  0
    2.5247   -1.1612    0.4329 C   0  0  0  0  0  0  0  0  0  0  0  0
    2.0984   -1.7322   -0.3884 H   0  0  0  0  0  0  0  0  0  0  0  0
    3.6001   -1.3479    0.4587 H   0  0  0  0  0  0  0  0  0  0  0  0
    2.0902   -1.5456    1.3528 H   0  0  0  0  0  0  0  0  0  0  0  0
  1  3  1  0  0  0  0
  1  4  1  0  0  0  0
  2  1  1  0  0  0  0
  5  1  1  0  0  0  0
  6  5  2  0  0  0  0
  7  8  1  0  0  0  0
  7  5  1  0  0  0  0
  9 10  1  0  0  0  0
  9  7  1  0  0  0  0
 11  9  1  0  0  0  0
 12  9  1  0  0  0  0
 13 16  1  0  0  0  0
 13 14  1  0  0  0  0
 15 13  1  0  0  0  0
 16 18  1  0  0  0  0
 16 19  1  0  0  0  0
 17 16  1  0  0  0  0
M  END
>  <SMILES>
CC(=O)NC.NC

>  <MoleculeName>
PeptideMeNH2095

>  <Distance Scale>
0.95

>  <Energy Value>
-7.34

$$$$
/home/S66X8/3077_48PyridinePyridineTS100.xyz
 OpenBabel06262409173D

 22 22  0  0  0  0  0  0  0  0999 V2000
    1.3228   -0.0104    1.0192 N   0  0  0  0  0  0  0  0  0  0  0  0
    0.6513   -1.1490    0.7968 C   0  0  0  0  0  0  0  0  0  0  0  0
    1.2004   -2.0655    0.9737 H   0  0  0  0  0  0  0  0  0  0  0  0
   -0.6727   -1.1947    0.3667 C   0  0  0  0  0  0  0  0  0  0  0  0
   -1.1572   -2.1473    0.2065 H   0  0  0  0  0  0  0  0  0  0  0  0
   -1.3472    0.0031    0.1521 C   0  0  0  0  0  0  0  0  0  0  0  0
   -2.3754    0.0084   -0.1823 H   0  0  0  0  0  0  0  0  0  0  0  0
   -0.6646    1.1941    0.3790 C   0  0  0  0  0  0  0  0  0  0  0  0
   -1.1426    2.1516    0.2287 H   0  0  0  0  0  0  0  0  0  0  0  0
    0.6589    1.1350    0.8089 C   0  0  0  0  0  0  0  0  0  0  0  0
    1.2141    2.0459    0.9954 H   0  0  0  0  0  0  0  0  0  0  0  0
    0.4559    0.0014    6.7615 N   0  0  0  0  0  0  0  0  0  0  0  0
    1.3265   -0.0042    5.7421 C   0  0  0  0  0  0  0  0  0  0  0  0
    2.3744   -0.0029    6.0164 H   0  0  0  0  0  0  0  0  0  0  0  0
    0.9531   -0.0113    4.4003 C   0  0  0  0  0  0  0  0  0  0  0  0
    1.7006   -0.0154    3.6192 H   0  0  0  0  0  0  0  0  0  0  0  0
   -0.4029   -0.0127    4.0879 C   0  0  0  0  0  0  0  0  0  0  0  0
   -0.7326   -0.0181    3.0576 H   0  0  0  0  0  0  0  0  0  0  0  0
   -1.3210   -0.0070    5.1330 C   0  0  0  0  0  0  0  0  0  0  0  0
   -2.3855   -0.0078    4.9443 H   0  0  0  0  0  0  0  0  0  0  0  0
   -0.8454   -0.0000    6.4420 C   0  0  0  0  0  0  0  0  0  0  0  0
   -1.5376    0.0045    7.2752 H   0  0  0  0  0  0  0  0  0  0  0  0
  2  3  1  0  0  0  0
  2  1  2  0  0  0  0
  4  2  1  0  0  0  0
  5  4  1  0  0  0  0
  6  4  2  0  0  0  0
  6  8  1  0  0  0  0
  7  6  1  0  0  0  0
  8 10  2  0  0  0  0
  9  8  1  0  0  0  0
 10 11  1  0  0  0  0
 10  1  1  0  0  0  0
 13 14  1  0  0  0  0
 13 12  2  0  0  0  0
 15 13  1  0  0  0  0
 16 15  1  0  0  0  0
 17 15  2  0  0  0  0
 17 19  1  0  0  0  0
 18 17  1  0  0  0  0
 19 21  2  0  0  0  0
 20 19  1  0  0  0  0
 21 12  1  0  0  0  0
 21 22  1  0  0  0  0
M  END
>  <SMILES>
n1ccccc1.n1ccccc1

>  <MoleculeName>
PyridinePyridineTS100

>  <Distance Scale>
1.0

>  <Energy Value>
-3.53

$$$$
/home/S66X8/2916_28BenzeneUracilpipi095.xyz
 OpenBabel06262409173D

 24 24  0  0  0  0  0  0  0  0999 V2000
    0.8258    1.2365   -0.0403 C   0  0  0  0  0  0  0  0  0  0  0  0
    1.5210    2.0631   -0.0825 H   0  0  0  0  0  0  0  0  0  0  0  0
    1.3002   -0.0629    0.1273 C   0  0  0  0  0  0  0  0  0  0  0  0
    2.3637   -0.2423    0.2077 H   0  0  0  0  0  0  0  0  0  0  0  0
    0.4035   -1.1286    0.1982 C   0  0  0  0  0  0  0  0  0  0  0  0
    0.7738   -2.1374    0.3241 H   0  0  0  0  0  0  0  0  0  0  0  0
   -0.9678   -0.8952    0.1031 C   0  0  0  0  0  0  0  0  0  0  0  0
   -1.6652   -1.7200    0.1604 H   0  0  0  0  0  0  0  0  0  0  0  0
   -1.4435    0.4045   -0.0624 C   0  0  0  0  0  0  0  0  0  0  0  0
   -2.5075    0.5855   -0.1242 H   0  0  0  0  0  0  0  0  0  0  0  0
   -0.5458    1.4688   -0.1362 C   0  0  0  0  0  0  0  0  0  0  0  0
   -0.9142    2.4774   -0.2679 H   0  0  0  0  0  0  0  0  0  0  0  0
   -0.2817    0.6906    3.0397 N   0  0  0  0  0  0  0  0  0  0  0  0
   -0.6550    1.5924    2.7769 H   0  0  0  0  0  0  0  0  0  0  0  0
    1.1105    0.6176    3.1718 C   0  0  0  0  0  0  0  0  0  0  0  0
    1.8014    1.6121    3.0269 O   0  0  0  0  0  0  0  0  0  0  0  0
    1.5894   -0.7164    3.4899 C   0  0  0  0  0  0  0  0  0  0  0  0
    2.6464   -0.8686    3.6240 H   0  0  0  0  0  0  0  0  0  0  0  0
    0.7097   -1.7308    3.6161 C   0  0  0  0  0  0  0  0  0  0  0  0
    1.0156   -2.7392    3.8526 H   0  0  0  0  0  0  0  0  0  0  0  0
   -0.6356   -1.5458    3.4460 N   0  0  0  0  0  0  0  0  0  0  0  0
   -1.2843   -2.3083    3.5449 H   0  0  0  0  0  0  0  0  0  0  0  0
   -1.2100   -0.3210    3.1466 C   0  0  0  0  0  0  0  0  0  0  0  0
   -2.4078   -0.1702    3.0045 O   0  0  0  0  0  0  0  0  0  0  0  0
  1  3  1  0  0  0  0
  2  1  1  0  0  0  0
  3  5  2  0  0  0  0
  3  4  1  0  0  0  0
  5  6  1  0  0  0  0
  7  8  1  0  0  0  0
  7  5  1  0  0  0  0
  9  7  2  0  0  0  0
 10  9  1  0  0  0  0
 11  9  1  0  0  0  0
 11  1  2  0  0  0  0
 12 11  1  0  0  0  0
 13 23  1  0  0  0  0
 13 15  1  0  0  0  0
 14 13  1  0  0  0  0
 15 17  1  0  0  0  0
 16 15  2  0  0  0  0
 17 19  2  0  0  0  0
 17 18  1  0  0  0  0
 19 20  1  0  0  0  0
 21 22  1  0  0  0  0
 21 19  1  0  0  0  0
 23 21  1  0  0  0  0
 24 23  2  0  0  0  0
M  END
>  <SMILES>
c1ccccc1.[nH]1c(=O)cc[nH]c1=O

>  <MoleculeName>
BenzeneUracilpipi095

>  <Distance Scale>
0.95

>  <Energy Value>
-5.22

$$$$
/home/S66X8/2817_15PeptidePeptide150.xyz
 OpenBabel06262409173D

 24 22  0  0  0  0  0  0  0  0999 V2000
   -0.7015   -0.2906    2.4069 C   0  0  0  0  0  0  0  0  0  0  0  0
   -1.1833    0.3956    3.0989 H   0  0  0  0  0  0  0  0  0  0  0  0
    0.3496   -0.0303    2.3078 H   0  0  0  0  0  0  0  0  0  0  0  0
   -0.7941   -1.2916    2.8240 H   0  0  0  0  0  0  0  0  0  0  0  0
   -1.4485   -0.2449    1.0918 C   0  0  0  0  0  0  0  0  0  0  0  0
   -2.6605   -0.4285    1.0343 O   0  0  0  0  0  0  0  0  0  0  0  0
   -0.6701    0.0059    0.0098 N   0  0  0  0  0  0  0  0  0  0  0  0
    0.3267    0.1226    0.1416 H   0  0  0  0  0  0  0  0  0  0  0  0
   -1.2271    0.0898   -1.3200 C   0  0  0  0  0  0  0  0  0  0  0  0
   -2.2920   -0.1065   -1.2409 H   0  0  0  0  0  0  0  0  0  0  0  0
   -1.0778    1.0799   -1.7485 H   0  0  0  0  0  0  0  0  0  0  0  0
   -0.7766   -0.6480   -1.9834 H   0  0  0  0  0  0  0  0  0  0  0  0
    3.0439   -2.4129    0.7648 C   0  0  0  0  0  0  0  0  0  0  0  0
    3.6021   -3.3229    0.5589 H   0  0  0  0  0  0  0  0  0  0  0  0
    2.1152   -2.4195    0.2005 H   0  0  0  0  0  0  0  0  0  0  0  0
    2.7847   -2.3895    1.8217 H   0  0  0  0  0  0  0  0  0  0  0  0
    3.8115   -1.1585    0.4286 C   0  0  0  0  0  0  0  0  0  0  0  0
    3.2663   -0.0571    0.3716 O   0  0  0  0  0  0  0  0  0  0  0  0
    5.1383   -1.3273    0.2148 N   0  0  0  0  0  0  0  0  0  0  0  0
    5.5146   -2.2546    0.2916 H   0  0  0  0  0  0  0  0  0  0  0  0
    6.0255   -0.2209   -0.0741 C   0  0  0  0  0  0  0  0  0  0  0  0
    5.4113    0.6699   -0.1540 H   0  0  0  0  0  0  0  0  0  0  0  0
    6.7529   -0.0814    0.7233 H   0  0  0  0  0  0  0  0  0  0  0  0
    6.5505   -0.3809   -1.0133 H   0  0  0  0  0  0  0  0  0  0  0  0
  1  4  1  0  0  0  0
  1  2  1  0  0  0  0
  3  1  1  0  0  0  0
  5  1  1  0  0  0  0
  6  5  2  0  0  0  0
  7  8  1  0  0  0  0
  7  5  1  0  0  0  0
  9 10  1  0  0  0  0
  9  7  1  0  0  0  0
 11  9  1  0  0  0  0
 12  9  1  0  0  0  0
 13 16  1  0  0  0  0
 14 13  1  0  0  0  0
 15 13  1  0  0  0  0
 17 13  1  0  0  0  0
 18 17  2  0  0  0  0
 19 20  1  0  0  0  0
 19 17  1  0  0  0  0
 21 19  1  0  0  0  0
 21 23  1  0  0  0  0
 22 21  1  0  0  0  0
 24 21  1  0  0  0  0
M  END
>  <SMILES>
CC(=O)NC.CC(=O)NC

>  <MoleculeName>
PeptidePeptide150

>  <Distance Scale>
1.5

>  <Energy Value>
-4.42

$$$$
/home/S66X8/3052_45EthynePentane095.xyz
 OpenBabel06262409173D

 21 19  0  0  0  0  0  0  0  0999 V2000
   -0.6062    0.0559    0.5890 C   0  0  0  0  0  0  0  0  0  0  0  0
   -1.6680    0.0558    0.5890 H   0  0  0  0  0  0  0  0  0  0  0  0
    0.6058    0.0555    0.5893 C   0  0  0  0  0  0  0  0  0  0  0  0
    1.6677    0.0549    0.5897 H   0  0  0  0  0  0  0  0  0  0  0  0
   -2.5304   -0.3444    4.0559 C   0  0  0  0  0  0  0  0  0  0  0  0
   -2.5388   -1.0064    3.1895 H   0  0  0  0  0  0  0  0  0  0  0  0
   -2.5823   -0.9707    4.9465 H   0  0  0  0  0  0  0  0  0  0  0  0
   -3.4328    0.2645    4.0232 H   0  0  0  0  0  0  0  0  0  0  0  0
   -1.2699    0.5102    4.0670 C   0  0  0  0  0  0  0  0  0  0  0  0
   -1.2865    1.1832    4.9274 H   0  0  0  0  0  0  0  0  0  0  0  0
   -1.2446    1.1444    3.1782 H   0  0  0  0  0  0  0  0  0  0  0  0
    0.0000   -0.3281    4.1075 C   0  0  0  0  0  0  0  0  0  0  0  0
    0.0000   -0.9459    5.0105 H   0  0  0  0  0  0  0  0  0  0  0  0
    0.0001   -1.0164    3.2582 H   0  0  0  0  0  0  0  0  0  0  0  0
    1.2699    0.5102    4.0671 C   0  0  0  0  0  0  0  0  0  0  0  0
    1.2866    1.1832    4.9275 H   0  0  0  0  0  0  0  0  0  0  0  0
    1.2448    1.1444    3.1783 H   0  0  0  0  0  0  0  0  0  0  0  0
    2.5305   -0.3444    4.0562 C   0  0  0  0  0  0  0  0  0  0  0  0
    2.5388   -1.0064    3.1898 H   0  0  0  0  0  0  0  0  0  0  0  0
    3.4328    0.2645    4.0234 H   0  0  0  0  0  0  0  0  0  0  0  0
    2.5823   -0.9706    4.9468 H   0  0  0  0  0  0  0  0  0  0  0  0
  1  2  1  0  0  0  0
  1  3  3  0  0  0  0
  3  4  1  0  0  0  0
  5  9  1  0  0  0  0
  5  7  1  0  0  0  0
  6  5  1  0  0  0  0
  8  5  1  0  0  0  0
  9 12  1  0  0  0  0
  9 10  1  0  0  0  0
 11  9  1  0  0  0  0
 12 13  1  0  0  0  0
 14 12  1  0  0  0  0
 15 12  1  0  0  0  0
 15 16  1  0  0  0  0
 17 15  1  0  0  0  0
 18 15  1  0  0  0  0
 18 21  1  0  0  0  0
 19 18  1  0  0  0  0
 20 18  1  0  0  0  0
M  END
>  <SMILES>
C#C.CCCCC

>  <MoleculeName>
EthynePentane095

>  <Distance Scale>
0.95

>  <Energy Value>
-1.63

$$$$
/home/S66X8/2826_16PeptideWater200.xyz
 OpenBabel06262409173D

 15 13  0  0  0  0  0  0  0  0999 V2000
   -0.7243   -0.7049    2.2839 C   0  0  0  0  0  0  0  0  0  0  0  0
    0.3353   -0.6299    2.0532 H   0  0  0  0  0  0  0  0  0  0  0  0
   -0.9517   -1.7120    2.6257 H   0  0  0  0  0  0  0  0  0  0  0  0
   -0.9696   -0.0221    3.0938 H   0  0  0  0  0  0  0  0  0  0  0  0
   -1.6149   -0.3874    1.1041 C   0  0  0  0  0  0  0  0  0  0  0  0
   -2.8373   -0.4150    1.1941 O   0  0  0  0  0  0  0  0  0  0  0  0
   -0.9534   -0.0764   -0.0408 N   0  0  0  0  0  0  0  0  0  0  0  0
    0.0538   -0.0756   -0.0366 H   0  0  0  0  0  0  0  0  0  0  0  0
   -1.6581    0.2501   -1.2586 C   0  0  0  0  0  0  0  0  0  0  0  0
   -2.7204    0.1769   -1.0467 H   0  0  0  0  0  0  0  0  0  0  0  0
   -1.4303    1.2630   -1.5881 H   0  0  0  0  0  0  0  0  0  0  0  0
   -1.4056   -0.4443   -2.0586 H   0  0  0  0  0  0  0  0  0  0  0  0
    4.2086   -0.0408   -0.2768 O   0  0  0  0  0  0  0  0  0  0  0  0
    4.7735   -0.7537   -0.5820 H   0  0  0  0  0  0  0  0  0  0  0  0
    4.7883    0.7234   -0.2529 H   0  0  0  0  0  0  0  0  0  0  0  0
  1  3  1  0  0  0  0
  1  4  1  0  0  0  0
  2  1  1  0  0  0  0
  5  6  2  0  0  0  0
  5  1  1  0  0  0  0
  7  8  1  0  0  0  0
  7  5  1  0  0  0  0
  9 10  1  0  0  0  0
  9  7  1  0  0  0  0
 11  9  1  0  0  0  0
 12  9  1  0  0  0  0
 13 15  1  0  0  0  0
 14 13  1  0  0  0  0
M  END
>  <SMILES>
CC(=O)NC.O

>  <MoleculeName>
PeptideWater200

>  <Distance Scale>
2.0

>  <Energy Value>
-1.13

$$$$
/home/S66X8/2899_26UracilUracilpipi090.xyz
 OpenBabel06262409173D

 24 24  0  0  0  0  0  0  0  0999 V2000
    1.3769    0.8397    0.7346 N   0  0  0  0  0  0  0  0  0  0  0  0
    1.0518    1.3862    1.5234 H   0  0  0  0  0  0  0  0  0  0  0  0
    1.3090    1.4575   -0.5207 C   0  0  0  0  0  0  0  0  0  0  0  0
    0.9206    2.6111   -0.6260 O   0  0  0  0  0  0  0  0  0  0  0  0
    2.0114   -1.2132   -0.0981 N   0  0  0  0  0  0  0  0  0  0  0  0
    1.7273    0.9908   -2.6120 H   0  0  0  0  0  0  0  0  0  0  0  0
    2.0257   -0.6972   -1.3644 C   0  0  0  0  0  0  0  0  0  0  0  0
    2.2975   -1.3911   -2.1456 H   0  0  0  0  0  0  0  0  0  0  0  0
    1.7145    0.5919   -1.6125 C   0  0  0  0  0  0  0  0  0  0  0  0
    2.1295   -2.2015    0.0568 H   0  0  0  0  0  0  0  0  0  0  0  0
    1.6459   -0.4852    1.0187 C   0  0  0  0  0  0  0  0  0  0  0  0
    1.5611   -0.9718    2.1298 O   0  0  0  0  0  0  0  0  0  0  0  0
   -1.1018   -0.7922    0.7346 N   0  0  0  0  0  0  0  0  0  0  0  0
   -0.7767   -1.3387    1.5234 H   0  0  0  0  0  0  0  0  0  0  0  0
   -1.0338   -1.4100   -0.5207 C   0  0  0  0  0  0  0  0  0  0  0  0
   -0.6454   -2.5636   -0.6260 O   0  0  0  0  0  0  0  0  0  0  0  0
   -1.7363    1.2607   -0.0981 N   0  0  0  0  0  0  0  0  0  0  0  0
   -1.4521   -0.9433   -2.6120 H   0  0  0  0  0  0  0  0  0  0  0  0
   -1.7506    0.7447   -1.3644 C   0  0  0  0  0  0  0  0  0  0  0  0
   -2.0224    1.4386   -2.1456 H   0  0  0  0  0  0  0  0  0  0  0  0
   -1.4394   -0.5444   -1.6125 C   0  0  0  0  0  0  0  0  0  0  0  0
   -1.8543    2.2490    0.0568 H   0  0  0  0  0  0  0  0  0  0  0  0
   -1.3708    0.5327    1.0187 C   0  0  0  0  0  0  0  0  0  0  0  0
   -1.2860    1.0193    2.1298 O   0  0  0  0  0  0  0  0  0  0  0  0
  1 11  1  0  0  0  0
  1  2  1  0  0  0  0
  3  1  1  0  0  0  0
  4  3  2  0  0  0  0
  5 10  1  0  0  0  0
  5 11  1  0  0  0  0
  6  9  1  0  0  0  0
  7  5  1  0  0  0  0
  8  7  1  0  0  0  0
  9  7  2  0  0  0  0
  9  3  1  0  0  0  0
 11 12  2  0  0  0  0
 13 23  1  0  0  0  0
 13 14  1  0  0  0  0
 15 13  1  0  0  0  0
 16 15  2  0  0  0  0
 17 22  1  0  0  0  0
 17 23  1  0  0  0  0
 18 21  1  0  0  0  0
 19 17  1  0  0  0  0
 20 19  1  0  0  0  0
 21 19  2  0  0  0  0
 21 15  1  0  0  0  0
 23 24  2  0  0  0  0
M  END
>  <SMILES>
[nH]1c(=O)cc[nH]c1=O.[nH]1c(=O)cc[nH]c1=O

>  <MoleculeName>
UracilUracilpipi090

>  <Distance Scale>
0.9

>  <Energy Value>
-7.86

$$$$
/home/S66X8/2705_01WaterWater150.xyz
 OpenBabel06262409173D

  6  4  0  0  0  0  0  0  0  0999 V2000
   -0.7022   -0.0561    0.0099 O   0  0  0  0  0  0  0  0  0  0  0  0
   -1.0222    0.8468   -0.0115 H   0  0  0  0  0  0  0  0  0  0  0  0
    0.2575    0.0421    0.0052 H   0  0  0  0  0  0  0  0  0  0  0  0
    3.2747    0.0184   -0.0018 O   0  0  0  0  0  0  0  0  0  0  0  0
    3.6513   -0.4199    0.7643 H   0  0  0  0  0  0  0  0  0  0  0  0
    3.6469   -0.4578   -0.7473 H   0  0  0  0  0  0  0  0  0  0  0  0
  2  1  1  0  0  0  0
  3  1  1  0  0  0  0
  4  5  1  0  0  0  0
  6  4  1  0  0  0  0
M  END
>  <SMILES>
O.O

>  <MoleculeName>
WaterWater150

>  <Distance Scale>
1.5

>  <Energy Value>
-2.11

$$$$
/home/S66X8/2759_08MeOHWater110.xyz
 OpenBabel06262409173D

  9  7  0  0  0  0  0  0  0  0999 V2000
   -0.7866    0.0452   -0.0072 O   0  0  0  0  0  0  0  0  0  0  0  0
    0.1777    0.0127   -0.0068 H   0  0  0  0  0  0  0  0  0  0  0  0
   -1.2480   -1.2903    0.0011 C   0  0  0  0  0  0  0  0  0  0  0  0
   -2.3343   -1.2589    0.0002 H   0  0  0  0  0  0  0  0  0  0  0  0
   -0.9260   -1.8498   -0.8804 H   0  0  0  0  0  0  0  0  0  0  0  0
   -0.9270   -1.8385    0.8901 H   0  0  0  0  0  0  0  0  0  0  0  0
    2.3604   -0.0589   -0.0045 O   0  0  0  0  0  0  0  0  0  0  0  0
    2.7996    0.3292   -0.7644 H   0  0  0  0  0  0  0  0  0  0  0  0
    2.7982    0.3437    0.7486 H   0  0  0  0  0  0  0  0  0  0  0  0
  1  2  1  0  0  0  0
  1  3  1  0  0  0  0
  3  6  1  0  0  0  0
  4  3  1  0  0  0  0
  5  3  1  0  0  0  0
  7  9  1  0  0  0  0
  8  7  1  0  0  0  0
M  END
>  <SMILES>
OC.O

>  <MoleculeName>
MeOHWater110

>  <Distance Scale>
1.1

>  <Energy Value>
-4.59

$$$$
/home/S66X8/3190_62PentaneAcNH2105.xyz
 OpenBabel06262409173D

 26 24  0  0  0  0  0  0  0  0999 V2000
   -2.5878   -0.3231    0.4695 C   0  0  0  0  0  0  0  0  0  0  0  0
   -2.6104   -0.8764   -0.4696 H   0  0  0  0  0  0  0  0  0  0  0  0
   -2.6597   -1.0519    1.2777 H   0  0  0  0  0  0  0  0  0  0  0  0
   -3.4760    0.3056    0.5090 H   0  0  0  0  0  0  0  0  0  0  0  0
   -1.3096    0.4974    0.5851 C   0  0  0  0  0  0  0  0  0  0  0  0
   -1.3173    1.0833    1.5063 H   0  0  0  0  0  0  0  0  0  0  0  0
   -1.2624    1.2156   -0.2368 H   0  0  0  0  0  0  0  0  0  0  0  0
   -0.0568   -0.3683    0.5584 C   0  0  0  0  0  0  0  0  0  0  0  0
   -0.0862   -1.0734    1.3959 H   0  0  0  0  0  0  0  0  0  0  0  0
   -0.0538   -0.9768   -0.3515 H   0  0  0  0  0  0  0  0  0  0  0  0
    1.2316    0.4401    0.6320 C   0  0  0  0  0  0  0  0  0  0  0  0
    1.2133    1.0536    1.5346 H   0  0  0  0  0  0  0  0  0  0  0  0
    1.2663    1.1314   -0.2131 H   0  0  0  0  0  0  0  0  0  0  0  0
    2.4726   -0.4431    0.6192 C   0  0  0  0  0  0  0  0  0  0  0  0
    2.5207   -1.0353   -0.2949 H   0  0  0  0  0  0  0  0  0  0  0  0
    3.3877    0.1441    0.6839 H   0  0  0  0  0  0  0  0  0  0  0  0
    2.4593   -1.1394    1.4586 H   0  0  0  0  0  0  0  0  0  0  0  0
    0.0463    0.2102    4.3129 C   0  0  0  0  0  0  0  0  0  0  0  0
    0.0733    1.3952    4.0211 O   0  0  0  0  0  0  0  0  0  0  0  0
    1.1789   -0.5417    4.4157 N   0  0  0  0  0  0  0  0  0  0  0  0
    2.0499   -0.1191    4.1471 H   0  0  0  0  0  0  0  0  0  0  0  0
    1.1400   -1.5336    4.5471 H   0  0  0  0  0  0  0  0  0  0  0  0
   -1.2439   -0.5288    4.5773 C   0  0  0  0  0  0  0  0  0  0  0  0
   -1.0966   -1.4895    5.0645 H   0  0  0  0  0  0  0  0  0  0  0  0
   -1.7501   -0.6871    3.6265 H   0  0  0  0  0  0  0  0  0  0  0  0
   -1.8818    0.0985    5.1926 H   0  0  0  0  0  0  0  0  0  0  0  0
  1  4  1  0  0  0  0
  1  5  1  0  0  0  0
  1  3  1  0  0  0  0
  2  1  1  0  0  0  0
  5  6  1  0  0  0  0
  7  5  1  0  0  0  0
  8  5  1  0  0  0  0
  8 11  1  0  0  0  0
  8  9  1  0  0  0  0
 10  8  1  0  0  0  0
 11 12  1  0  0  0  0
 13 11  1  0  0  0  0
 14 11  1  0  0  0  0
 14 16  1  0  0  0  0
 14 17  1  0  0  0  0
 15 14  1  0  0  0  0
 18 20  1  0  0  0  0
 18 23  1  0  0  0  0
 19 18  2  0  0  0  0
 20 22  1  0  0  0  0
 21 20  1  0  0  0  0
 23 24  1  0  0  0  0
 23 26  1  0  0  0  0
 25 23  1  0  0  0  0
M  END
>  <SMILES>
CCCCC.C(=O)(N)C

>  <MoleculeName>
PentaneAcNH2105

>  <Distance Scale>
1.05

>  <Energy Value>
-3.32

$$$$
/home/S66X8/2945_31UracilEthene150.xyz
 OpenBabel06262409173D

 18 17  0  0  0  0  0  0  0  0999 V2000
   -0.0509   -0.9801    0.0340 N   0  0  0  0  0  0  0  0  0  0  0  0
   -0.0532   -1.9907    0.0498 H   0  0  0  0  0  0  0  0  0  0  0  0
   -1.3088   -0.3619    0.0040 C   0  0  0  0  0  0  0  0  0  0  0  0
   -2.3272   -1.0326   -0.0058 O   0  0  0  0  0  0  0  0  0  0  0  0
   -1.2368    1.0880   -0.0122 C   0  0  0  0  0  0  0  0  0  0  0  0
   -2.1527    1.6515   -0.0548 H   0  0  0  0  0  0  0  0  0  0  0  0
   -0.0352    1.6978    0.0337 C   0  0  0  0  0  0  0  0  0  0  0  0
    0.0704    2.7725    0.0319 H   0  0  0  0  0  0  0  0  0  0  0  0
    1.1345    0.9903    0.0918 N   0  0  0  0  0  0  0  0  0  0  0  0
    2.0237    1.4568    0.1557 H   0  0  0  0  0  0  0  0  0  0  0  0
    1.1932   -0.3918    0.1158 C   0  0  0  0  0  0  0  0  0  0  0  0
    2.2364   -1.0112    0.1942 O   0  0  0  0  0  0  0  0  0  0  0  0
    0.7665    0.0766    4.9105 C   0  0  0  0  0  0  0  0  0  0  0  0
    1.2836   -0.7944    4.5333 H   0  0  0  0  0  0  0  0  0  0  0  0
    1.3721    0.8636    5.3378 H   0  0  0  0  0  0  0  0  0  0  0  0
   -0.5622    0.1772    4.8612 C   0  0  0  0  0  0  0  0  0  0  0  0
   -1.1742   -0.6103    4.4443 H   0  0  0  0  0  0  0  0  0  0  0  0
   -1.0741    1.0483    5.2452 H   0  0  0  0  0  0  0  0  0  0  0  0
  1  2  1  0  0  0  0
  1 11  1  0  0  0  0
  3  1  1  0  0  0  0
  4  3  2  0  0  0  0
  5  3  1  0  0  0  0
  5  7  2  0  0  0  0
  6  5  1  0  0  0  0
  7  9  1  0  0  0  0
  8  7  1  0  0  0  0
  9 11  1  0  0  0  0
  9 10  1  0  0  0  0
 11 12  2  0  0  0  0
 13 15  1  0  0  0  0
 14 13  1  0  0  0  0
 16 13  2  0  0  0  0
 16 18  1  0  0  0  0
 17 16  1  0  0  0  0
M  END
>  <SMILES>
[nH]1c(=O)cc[nH]c1=O.C=C

>  <MoleculeName>
UracilEthene150

>  <Distance Scale>
1.5

>  <Energy Value>
-0.93

$$$$
/home/S66X8/2908_27BenzenePyridinepipi095.xyz
 OpenBabel06262409173D

 23 23  0  0  0  0  0  0  0  0999 V2000
    0.8187    0.8642    0.1883 C   0  0  0  0  0  0  0  0  0  0  0  0
    1.4661    1.7167    0.3447 H   0  0  0  0  0  0  0  0  0  0  0  0
    1.3690   -0.3905   -0.0667 C   0  0  0  0  0  0  0  0  0  0  0  0
    2.4430   -0.5119   -0.1106 H   0  0  0  0  0  0  0  0  0  0  0  0
    0.5344   -1.4885   -0.2719 C   0  0  0  0  0  0  0  0  0  0  0  0
    0.9608   -2.4616   -0.4755 H   0  0  0  0  0  0  0  0  0  0  0  0
   -0.8491   -1.3305   -0.2199 C   0  0  0  0  0  0  0  0  0  0  0  0
   -1.4971   -2.1819   -0.3796 H   0  0  0  0  0  0  0  0  0  0  0  0
   -1.3995   -0.0760    0.0404 C   0  0  0  0  0  0  0  0  0  0  0  0
   -2.4727    0.0449    0.0934 H   0  0  0  0  0  0  0  0  0  0  0  0
   -0.5653    1.0214    0.2423 C   0  0  0  0  0  0  0  0  0  0  0  0
   -0.9926    1.9937    0.4463 H   0  0  0  0  0  0  0  0  0  0  0  0
   -2.3247    0.1261    3.2523 N   0  0  0  0  0  0  0  0  0  0  0  0
   -1.7098    1.2837    3.5323 C   0  0  0  0  0  0  0  0  0  0  0  0
   -2.3574    2.1369    3.6948 H   0  0  0  0  0  0  0  0  0  0  0  0
   -0.3276    1.4246    3.6225 C   0  0  0  0  0  0  0  0  0  0  0  0
    0.1042    2.3882    3.8537 H   0  0  0  0  0  0  0  0  0  0  0  0
    0.4733    0.3076    3.4083 C   0  0  0  0  0  0  0  0  0  0  0  0
    1.5509    0.3780    3.4631 H   0  0  0  0  0  0  0  0  0  0  0  0
   -0.1472   -0.9011    3.1146 C   0  0  0  0  0  0  0  0  0  0  0  0
    0.4286   -1.7967    2.9305 H   0  0  0  0  0  0  0  0  0  0  0  0
   -1.5377   -0.9391    3.0492 C   0  0  0  0  0  0  0  0  0  0  0  0
   -2.0466   -1.8676    2.8203 H   0  0  0  0  0  0  0  0  0  0  0  0
  1 11  1  0  0  0  0
  1  2  1  0  0  0  0
  3  1  2  0  0  0  0
  4  3  1  0  0  0  0
  5  7  2  0  0  0  0
  5  3  1  0  0  0  0
  6  5  1  0  0  0  0
  7  9  1  0  0  0  0
  8  7  1  0  0  0  0
  9 10  1  0  0  0  0
  9 11  2  0  0  0  0
 11 12  1  0  0  0  0
 13 14  1  0  0  0  0
 14 16  2  0  0  0  0
 14 15  1  0  0  0  0
 16 17  1  0  0  0  0
 18 19  1  0  0  0  0
 18 16  1  0  0  0  0
 20 18  2  0  0  0  0
 21 20  1  0  0  0  0
 22 20  1  0  0  0  0
 22 13  2  0  0  0  0
 23 22  1  0  0  0  0
M  END
>  <SMILES>
c1ccccc1.n1ccccc1

>  <MoleculeName>
BenzenePyridinepipi095

>  <Distance Scale>
0.95

>  <Energy Value>
-2.69

$$$$
/home/S66X8/3080_48PyridinePyridineTS125.xyz
 OpenBabel06262409173D

 22 22  0  0  0  0  0  0  0  0999 V2000
    1.3228   -0.0104    1.0192 N   0  0  0  0  0  0  0  0  0  0  0  0
    0.6513   -1.1490    0.7968 C   0  0  0  0  0  0  0  0  0  0  0  0
    1.2004   -2.0655    0.9737 H   0  0  0  0  0  0  0  0  0  0  0  0
   -0.6727   -1.1947    0.3667 C   0  0  0  0  0  0  0  0  0  0  0  0
   -1.1572   -2.1473    0.2065 H   0  0  0  0  0  0  0  0  0  0  0  0
   -1.3472    0.0031    0.1521 C   0  0  0  0  0  0  0  0  0  0  0  0
   -2.3754    0.0084   -0.1823 H   0  0  0  0  0  0  0  0  0  0  0  0
   -0.6646    1.1941    0.3790 C   0  0  0  0  0  0  0  0  0  0  0  0
   -1.1426    2.1516    0.2287 H   0  0  0  0  0  0  0  0  0  0  0  0
    0.6589    1.1350    0.8089 C   0  0  0  0  0  0  0  0  0  0  0  0
    1.2141    2.0459    0.9954 H   0  0  0  0  0  0  0  0  0  0  0  0
    0.2551   -0.0026    7.4410 N   0  0  0  0  0  0  0  0  0  0  0  0
    1.1258   -0.0082    6.4216 C   0  0  0  0  0  0  0  0  0  0  0  0
    2.1736   -0.0069    6.6959 H   0  0  0  0  0  0  0  0  0  0  0  0
    0.7524   -0.0152    5.0797 C   0  0  0  0  0  0  0  0  0  0  0  0
    1.4999   -0.0194    4.2986 H   0  0  0  0  0  0  0  0  0  0  0  0
   -0.6037   -0.0167    4.7673 C   0  0  0  0  0  0  0  0  0  0  0  0
   -0.9334   -0.0221    3.7370 H   0  0  0  0  0  0  0  0  0  0  0  0
   -1.5218   -0.0109    5.8125 C   0  0  0  0  0  0  0  0  0  0  0  0
   -2.5862   -0.0118    5.6237 H   0  0  0  0  0  0  0  0  0  0  0  0
   -1.0462   -0.0040    7.1214 C   0  0  0  0  0  0  0  0  0  0  0  0
   -1.7383    0.0006    7.9546 H   0  0  0  0  0  0  0  0  0  0  0  0
  2  3  1  0  0  0  0
  2  1  2  0  0  0  0
  4  2  1  0  0  0  0
  5  4  1  0  0  0  0
  6  4  2  0  0  0  0
  6  8  1  0  0  0  0
  7  6  1  0  0  0  0
  8 10  2  0  0  0  0
  9  8  1  0  0  0  0
 10 11  1  0  0  0  0
 10  1  1  0  0  0  0
 13 14  1  0  0  0  0
 13 12  2  0  0  0  0
 15 13  1  0  0  0  0
 16 15  1  0  0  0  0
 17 15  2  0  0  0  0
 17 19  1  0  0  0  0
 18 17  1  0  0  0  0
 19 21  2  0  0  0  0
 20 19  1  0  0  0  0
 21 12  1  0  0  0  0
 21 22  1  0  0  0  0
M  END
>  <SMILES>
n1ccccc1.n1ccccc1

>  <MoleculeName>
PyridinePyridineTS125

>  <Distance Scale>
1.25

>  <Energy Value>
-2.29

$$$$
/home/S66X8/2730_04WaterPeptide200.xyz
 OpenBabel06262409173D

 15 13  0  0  0  0  0  0  0  0999 V2000
   -0.3920   -0.3847    0.0761 O   0  0  0  0  0  0  0  0  0  0  0  0
   -0.9115    0.4138    0.1776 H   0  0  0  0  0  0  0  0  0  0  0  0
    0.5249   -0.0685    0.0905 H   0  0  0  0  0  0  0  0  0  0  0  0
    4.2962   -2.0227   -0.2662 C   0  0  0  0  0  0  0  0  0  0  0  0
    4.9462   -2.8838   -0.3991 H   0  0  0  0  0  0  0  0  0  0  0  0
    3.6152   -1.9453   -1.1101 H   0  0  0  0  0  0  0  0  0  0  0  0
    3.6832   -2.1615    0.6208 H   0  0  0  0  0  0  0  0  0  0  0  0
    5.0509   -0.7247   -0.1336 C   0  0  0  0  0  0  0  0  0  0  0  0
    4.4742    0.3506    0.0230 O   0  0  0  0  0  0  0  0  0  0  0  0
    6.4016   -0.8222   -0.1982 N   0  0  0  0  0  0  0  0  0  0  0  0
    6.8025   -1.7328   -0.3277 H   0  0  0  0  0  0  0  0  0  0  0  0
    7.2698    0.3297   -0.0888 C   0  0  0  0  0  0  0  0  0  0  0  0
    6.6333    1.1980    0.0460 H   0  0  0  0  0  0  0  0  0  0  0  0
    7.9354    0.2383    0.7673 H   0  0  0  0  0  0  0  0  0  0  0  0
    7.8643    0.4592   -0.9910 H   0  0  0  0  0  0  0  0  0  0  0  0
  1  3  1  0  0  0  0
  1  2  1  0  0  0  0
  4  8  1  0  0  0  0
  4  7  1  0  0  0  0
  5  4  1  0  0  0  0
  6  4  1  0  0  0  0
  8  9  2  0  0  0  0
 10  8  1  0  0  0  0
 10 12  1  0  0  0  0
 11 10  1  0  0  0  0
 12 13  1  0  0  0  0
 12 14  1  0  0  0  0
 15 12  1  0  0  0  0
M  END
>  <SMILES>
O.CC(=O)NC

>  <MoleculeName>
WaterPeptide200

>  <Distance Scale>
2.0

>  <Energy Value>
-1.44

$$$$
/home/S66X8/2957_33PyridineEthene100.xyz
 OpenBabel06262409173D

 17 16  0  0  0  0  0  0  0  0999 V2000
    1.3814   -0.0002    0.1315 N   0  0  0  0  0  0  0  0  0  0  0  0
    0.6794   -1.1402    0.0921 C   0  0  0  0  0  0  0  0  0  0  0  0
    1.2587   -2.0550    0.1259 H   0  0  0  0  0  0  0  0  0  0  0  0
   -0.7097   -1.1931    0.0067 C   0  0  0  0  0  0  0  0  0  0  0  0
   -1.2141   -2.1486   -0.0253 H   0  0  0  0  0  0  0  0  0  0  0  0
   -1.4216    0.0001   -0.0408 C   0  0  0  0  0  0  0  0  0  0  0  0
   -2.5007    0.0003   -0.1092 H   0  0  0  0  0  0  0  0  0  0  0  0
   -0.7094    1.1932    0.0065 C   0  0  0  0  0  0  0  0  0  0  0  0
   -1.2135    2.1487   -0.0255 H   0  0  0  0  0  0  0  0  0  0  0  0
    0.6797    1.1400    0.0919 C   0  0  0  0  0  0  0  0  0  0  0  0
    1.2593    2.0545    0.1255 H   0  0  0  0  0  0  0  0  0  0  0  0
    0.0192    0.6664    3.4372 C   0  0  0  0  0  0  0  0  0  0  0  0
    0.9296    1.2259    3.2781 H   0  0  0  0  0  0  0  0  0  0  0  0
   -0.8904    1.2288    3.5941 H   0  0  0  0  0  0  0  0  0  0  0  0
    0.0195   -0.6663    3.4373 C   0  0  0  0  0  0  0  0  0  0  0  0
    0.9302   -1.2253    3.2783 H   0  0  0  0  0  0  0  0  0  0  0  0
   -0.8898   -1.2291    3.5944 H   0  0  0  0  0  0  0  0  0  0  0  0
  2  3  1  0  0  0  0
  2  1  1  0  0  0  0
  4  2  2  0  0  0  0
  5  4  1  0  0  0  0
  6  8  2  0  0  0  0
  6  4  1  0  0  0  0
  7  6  1  0  0  0  0
  8 10  1  0  0  0  0
  9  8  1  0  0  0  0
 10 11  1  0  0  0  0
 10  1  2  0  0  0  0
 12 15  2  0  0  0  0
 12 14  1  0  0  0  0
 13 12  1  0  0  0  0
 15 17  1  0  0  0  0
 16 15  1  0  0  0  0
M  END
>  <SMILES>
n1ccccc1.C=C

>  <MoleculeName>
PyridineEthene100

>  <Distance Scale>
1.0

>  <Energy Value>
-1.86

$$$$
/home/S66X8/2977_35NeopentanePentane150.xyz
 OpenBabel06262409173D

 34 32  0  0  0  0  0  0  0  0999 V2000
   -2.5304   -0.4176    0.6813 C   0  0  0  0  0  0  0  0  0  0  0  0
   -2.5599   -0.9828   -0.2502 H   0  0  0  0  0  0  0  0  0  0  0  0
   -2.5540   -1.1339    1.5027 H   0  0  0  0  0  0  0  0  0  0  0  0
   -3.4362    0.1841    0.7368 H   0  0  0  0  0  0  0  0  0  0  0  0
   -1.2762    0.4436    0.7500 C   0  0  0  0  0  0  0  0  0  0  0  0
   -1.2781    1.0252    1.6751 H   0  0  0  0  0  0  0  0  0  0  0  0
   -1.2803    1.1686   -0.0672 H   0  0  0  0  0  0  0  0  0  0  0  0
    0.0022   -0.3807    0.6790 C   0  0  0  0  0  0  0  0  0  0  0  0
    0.0078   -1.1114    1.4938 H   0  0  0  0  0  0  0  0  0  0  0  0
    0.0062   -0.9605   -0.2488 H   0  0  0  0  0  0  0  0  0  0  0  0
    1.2683    0.4624    0.7494 C   0  0  0  0  0  0  0  0  0  0  0  0
    1.2620    1.0443    1.6742 H   0  0  0  0  0  0  0  0  0  0  0  0
    1.2616    1.1871   -0.0680 H   0  0  0  0  0  0  0  0  0  0  0  0
    2.5350   -0.3804    0.6807 C   0  0  0  0  0  0  0  0  0  0  0  0
    2.5724   -0.9457   -0.2505 H   0  0  0  0  0  0  0  0  0  0  0  0
    3.4320    0.2344    0.7356 H   0  0  0  0  0  0  0  0  0  0  0  0
    2.5692   -1.0958    1.5025 H   0  0  0  0  0  0  0  0  0  0  0  0
   -0.0007    0.1063    6.7291 C   0  0  0  0  0  0  0  0  0  0  0  0
    0.0004   -0.0339    8.2488 C   0  0  0  0  0  0  0  0  0  0  0  0
   -0.8866    0.4302    8.6822 H   0  0  0  0  0  0  0  0  0  0  0  0
    0.0097   -1.0847    8.5418 H   0  0  0  0  0  0  0  0  0  0  0  0
    0.8791    0.4458    8.6824 H   0  0  0  0  0  0  0  0  0  0  0  0
   -1.2401   -0.5754    6.1552 C   0  0  0  0  0  0  0  0  0  0  0  0
   -1.2634   -0.4864    5.0683 H   0  0  0  0  0  0  0  0  0  0  0  0
   -1.2522   -1.6367    6.4082 H   0  0  0  0  0  0  0  0  0  0  0  0
   -2.1510   -0.1231    6.5502 H   0  0  0  0  0  0  0  0  0  0  0  0
    1.2520   -0.5513    6.1556 C   0  0  0  0  0  0  0  0  0  0  0  0
    1.2733   -0.4630    5.0686 H   0  0  0  0  0  0  0  0  0  0  0  0
    1.2851   -1.6118    6.4097 H   0  0  0  0  0  0  0  0  0  0  0  0
    2.1538   -0.0806    6.5500 H   0  0  0  0  0  0  0  0  0  0  0  0
   -0.0149    1.5860    6.3544 C   0  0  0  0  0  0  0  0  0  0  0  0
    0.8629    2.0966    6.7534 H   0  0  0  0  0  0  0  0  0  0  0  0
   -0.0154    1.7125    5.2708 H   0  0  0  0  0  0  0  0  0  0  0  0
   -0.9030    2.0794    6.7522 H   0  0  0  0  0  0  0  0  0  0  0  0
  1  4  1  0  0  0  0
  1  5  1  0  0  0  0
  1  3  1  0  0  0  0
  2  1  1  0  0  0  0
  5  6  1  0  0  0  0
  7  5  1  0  0  0  0
  8 11  1  0  0  0  0
  8  5  1  0  0  0  0
  8  9  1  0  0  0  0
 10  8  1  0  0  0  0
 11 12  1  0  0  0  0
 13 11  1  0  0  0  0
 14 16  1  0  0  0  0
 14 11  1  0  0  0  0
 14 17  1  0  0  0  0
 15 14  1  0  0  0  0
 18 19  1  0  0  0  0
 19 21  1  0  0  0  0
 19 20  1  0  0  0  0
 19 22  1  0  0  0  0
 23 25  1  0  0  0  0
 23 26  1  0  0  0  0
 23 18  1  0  0  0  0
 24 23  1  0  0  0  0
 27 29  1  0  0  0  0
 27 30  1  0  0  0  0
 27 18  1  0  0  0  0
 28 27  1  0  0  0  0
 31 18  1  0  0  0  0
 31 34  1  0  0  0  0
 31 32  1  0  0  0  0
 33 31  1  0  0  0  0
M  END
>  <SMILES>
CCCCC.C(C)(C)(C)C

>  <MoleculeName>
NeopentanePentane150

>  <Distance Scale>
1.5

>  <Energy Value>
-0.7

$$$$
/home/S66X8/2953_32UracilEthyne150.xyz
 OpenBabel06262409173D

 16 15  0  0  0  0  0  0  0  0999 V2000
   -0.0555   -0.9480    0.0100 N   0  0  0  0  0  0  0  0  0  0  0  0
   -0.0573   -1.9577    0.0551 H   0  0  0  0  0  0  0  0  0  0  0  0
   -1.3140   -0.3351   -0.0646 C   0  0  0  0  0  0  0  0  0  0  0  0
   -2.3289   -1.0079   -0.1231 O   0  0  0  0  0  0  0  0  0  0  0  0
   -1.2484    1.1161   -0.0665 C   0  0  0  0  0  0  0  0  0  0  0  0
   -2.1643    1.6753   -0.1471 H   0  0  0  0  0  0  0  0  0  0  0  0
   -0.0531    1.7314    0.0342 C   0  0  0  0  0  0  0  0  0  0  0  0
    0.0481    2.8064    0.0434 H   0  0  0  0  0  0  0  0  0  0  0  0
    1.1159    1.0276    0.1352 N   0  0  0  0  0  0  0  0  0  0  0  0
    1.9967    1.4973    0.2616 H   0  0  0  0  0  0  0  0  0  0  0  0
    1.1753   -0.3538    0.1762 C   0  0  0  0  0  0  0  0  0  0  0  0
    2.2146   -0.9665    0.3352 O   0  0  0  0  0  0  0  0  0  0  0  0
    0.7883   -0.1611    4.7797 C   0  0  0  0  0  0  0  0  0  0  0  0
    1.7841   -0.5151    4.6655 H   0  0  0  0  0  0  0  0  0  0  0  0
   -0.3563    0.2254    4.8859 C   0  0  0  0  0  0  0  0  0  0  0  0
   -1.3612    0.5541    4.9863 H   0  0  0  0  0  0  0  0  0  0  0  0
  1  2  1  0  0  0  0
  1 11  1  0  0  0  0
  3  1  1  0  0  0  0
  4  3  2  0  0  0  0
  5  3  1  0  0  0  0
  5  7  2  0  0  0  0
  6  5  1  0  0  0  0
  7  8  1  0  0  0  0
  7  9  1  0  0  0  0
  9 11  1  0  0  0  0
  9 10  1  0  0  0  0
 11 12  2  0  0  0  0
 13 15  3  0  0  0  0
 14 13  1  0  0  0  0
 15 16  1  0  0  0  0
M  END
>  <SMILES>
[nH]1c(=O)cc[nH]c1=O.C#C

>  <MoleculeName>
UracilEthyne150

>  <Distance Scale>
1.5

>  <Energy Value>
-1.04

$$$$
/home/S66X8/3166_59EthyneWaterCHO105.xyz
 OpenBabel06262409173D

  7  5  0  0  0  0  0  0  0  0999 V2000
   -1.0069   -0.0306   -0.0248 C   0  0  0  0  0  0  0  0  0  0  0  0
    0.0590   -0.0609   -0.0494 H   0  0  0  0  0  0  0  0  0  0  0  0
   -2.2187    0.0032    0.0026 C   0  0  0  0  0  0  0  0  0  0  0  0
   -3.2793    0.0335    0.0272 H   0  0  0  0  0  0  0  0  0  0  0  0
    2.4002   -0.1508   -0.1196 O   0  0  0  0  0  0  0  0  0  0  0  0
    2.9705   -0.7406    0.3775 H   0  0  0  0  0  0  0  0  0  0  0  0
    2.9721    0.2002   -0.8049 H   0  0  0  0  0  0  0  0  0  0  0  0
  1  3  3  0  0  0  0
  2  1  1  0  0  0  0
  3  4  1  0  0  0  0
  5  6  1  0  0  0  0
  7  5  1  0  0  0  0
M  END
>  <SMILES>
C#C.O

>  <MoleculeName>
EthyneWaterCHO105

>  <Distance Scale>
1.05

>  <Energy Value>
-2.76

$$$$
/home/S66X8/2869_22AcOHUracil100.xyz
 OpenBabel06262409173D

 20 19  0  0  0  0  0  0  0  0999 V2000
   -1.1136    1.3270    0.2752 C   0  0  0  0  0  0  0  0  0  0  0  0
   -0.4671    2.3494    0.4615 O   0  0  0  0  0  0  0  0  0  0  0  0
   -0.5781    0.1369    0.0496 O   0  0  0  0  0  0  0  0  0  0  0  0
    0.4133    0.2033    0.0555 H   0  0  0  0  0  0  0  0  0  0  0  0
   -2.6114    1.2862    0.2774 C   0  0  0  0  0  0  0  0  0  0  0  0
   -3.0066    2.2769    0.4658 H   0  0  0  0  0  0  0  0  0  0  0  0
   -2.9643    0.9153   -0.6820 H   0  0  0  0  0  0  0  0  0  0  0  0
   -2.9531    0.5918    1.0412 H   0  0  0  0  0  0  0  0  0  0  0  0
    4.1970    1.0882    0.1829 N   0  0  0  0  0  0  0  0  0  0  0  0
    4.5902    0.1728    0.0111 H   0  0  0  0  0  0  0  0  0  0  0  0
    5.1185    2.1363    0.3643 C   0  0  0  0  0  0  0  0  0  0  0  0
    6.3156    1.9180    0.3114 O   0  0  0  0  0  0  0  0  0  0  0  0
    4.4794    3.4157    0.6049 C   0  0  0  0  0  0  0  0  0  0  0  0
    5.0990    4.2827    0.7564 H   0  0  0  0  0  0  0  0  0  0  0  0
    3.1324    3.4957    0.6343 C   0  0  0  0  0  0  0  0  0  0  0  0
    2.6095    4.4242    0.8096 H   0  0  0  0  0  0  0  0  0  0  0  0
    2.3286    2.4050    0.4439 N   0  0  0  0  0  0  0  0  0  0  0  0
    1.3046    2.4750    0.4677 H   0  0  0  0  0  0  0  0  0  0  0  0
    2.8286    1.1548    0.2097 C   0  0  0  0  0  0  0  0  0  0  0  0
    2.1165    0.1653    0.0362 O   0  0  0  0  0  0  0  0  0  0  0  0
  1  5  1  0  0  0  0
  1  2  2  0  0  0  0
  3  4  1  0  0  0  0
  3  1  1  0  0  0  0
  5  6  1  0  0  0  0
  5  8  1  0  0  0  0
  7  5  1  0  0  0  0
  9 19  1  0  0  0  0
  9 11  1  0  0  0  0
 10  9  1  0  0  0  0
 11 13  1  0  0  0  0
 12 11  2  0  0  0  0
 13 15  2  0  0  0  0
 13 14  1  0  0  0  0
 15 16  1  0  0  0  0
 17 18  1  0  0  0  0
 17 15  1  0  0  0  0
 19 17  1  0  0  0  0
 20 19  2  0  0  0  0
M  END
>  <SMILES>
C(=O)(O)C.[nH]1c(=O)cc[nH]c1=O

>  <MoleculeName>
AcOHUracil100

>  <Distance Scale>
1.0

>  <Energy Value>
-19.49

$$$$
/home/S66X8/2747_07MeOHPeptide090.xyz
 OpenBabel06262409173D

 18 16  0  0  0  0  0  0  0  0999 V2000
   -0.2088   -0.2169   -1.0324 O   0  0  0  0  0  0  0  0  0  0  0  0
    0.7111   -0.3869   -0.7740 H   0  0  0  0  0  0  0  0  0  0  0  0
   -1.0222   -0.7412   -0.0055 C   0  0  0  0  0  0  0  0  0  0  0  0
   -2.0575   -0.5387   -0.2686 H   0  0  0  0  0  0  0  0  0  0  0  0
   -0.9077   -1.8218    0.1085 H   0  0  0  0  0  0  0  0  0  0  0  0
   -0.8246   -0.2755    0.9646 H   0  0  0  0  0  0  0  0  0  0  0  0
    1.8201    1.9019    0.3794 C   0  0  0  0  0  0  0  0  0  0  0  0
    2.3265    2.8633    0.3445 H   0  0  0  0  0  0  0  0  0  0  0  0
    1.4096    1.7558    1.3772 H   0  0  0  0  0  0  0  0  0  0  0  0
    0.9905    1.8924   -0.3221 H   0  0  0  0  0  0  0  0  0  0  0  0
    2.7357    0.7470    0.0635 C   0  0  0  0  0  0  0  0  0  0  0  0
    2.3115   -0.3730   -0.2216 O   0  0  0  0  0  0  0  0  0  0  0  0
    4.0619    1.0087    0.1227 N   0  0  0  0  0  0  0  0  0  0  0  0
    4.3599    1.9191    0.4203 H   0  0  0  0  0  0  0  0  0  0  0  0
    5.0443   -0.0314   -0.1001 C   0  0  0  0  0  0  0  0  0  0  0  0
    4.6877   -0.6824   -0.8923 H   0  0  0  0  0  0  0  0  0  0  0  0
    5.9847    0.4221   -0.3986 H   0  0  0  0  0  0  0  0  0  0  0  0
    5.2038   -0.6360    0.7920 H   0  0  0  0  0  0  0  0  0  0  0  0
  1  2  1  0  0  0  0
  1  3  1  0  0  0  0
  3  5  1  0  0  0  0
  3  6  1  0  0  0  0
  4  3  1  0  0  0  0
  7  9  1  0  0  0  0
  8  7  1  0  0  0  0
 10  7  1  0  0  0  0
 11 13  1  0  0  0  0
 11  7  1  0  0  0  0
 12 11  2  0  0  0  0
 13 14  1  0  0  0  0
 15 13  1  0  0  0  0
 15 18  1  0  0  0  0
 16 15  1  0  0  0  0
 17 15  1  0  0  0  0
M  END
>  <SMILES>
OC.CC(=O)NC

>  <MoleculeName>
MeOHPeptide090

>  <Distance Scale>
0.9

>  <Energy Value>
-7.63

$$$$
/home/S66X8/3012_40BenzeneNeopentane095.xyz
 OpenBabel06262409173D

 29 28  0  0  0  0  0  0  0  0999 V2000
    0.3120    0.5610    0.4967 C   0  0  0  0  0  0  0  0  0  0  0  0
    0.7421    1.5534    0.4816 H   0  0  0  0  0  0  0  0  0  0  0  0
    1.1422   -0.5581    0.5361 C   0  0  0  0  0  0  0  0  0  0  0  0
    2.2165   -0.4343    0.5524 H   0  0  0  0  0  0  0  0  0  0  0  0
    0.5878   -1.8367    0.5541 C   0  0  0  0  0  0  0  0  0  0  0  0
    1.2319   -2.7048    0.5852 H   0  0  0  0  0  0  0  0  0  0  0  0
   -0.7967   -1.9964    0.5330 C   0  0  0  0  0  0  0  0  0  0  0  0
   -1.2268   -2.9884    0.5486 H   0  0  0  0  0  0  0  0  0  0  0  0
   -1.6269   -0.8775    0.4942 C   0  0  0  0  0  0  0  0  0  0  0  0
   -2.7011   -1.0013    0.4798 H   0  0  0  0  0  0  0  0  0  0  0  0
   -1.0727    0.4012    0.4760 C   0  0  0  0  0  0  0  0  0  0  0  0
   -1.7170    1.2694    0.4459 H   0  0  0  0  0  0  0  0  0  0  0  0
    0.1779    0.5120    4.6516 C   0  0  0  0  0  0  0  0  0  0  0  0
    1.6241    0.6908    4.1966 C   0  0  0  0  0  0  0  0  0  0  0  0
    2.0400    1.6241    4.5800 H   0  0  0  0  0  0  0  0  0  0  0  0
    2.2475   -0.1298    4.5555 H   0  0  0  0  0  0  0  0  0  0  0  0
    1.6847    0.7102    3.1077 H   0  0  0  0  0  0  0  0  0  0  0  0
    0.1235    0.4807    6.1765 C   0  0  0  0  0  0  0  0  0  0  0  0
   -0.9023    0.3532    6.5255 H   0  0  0  0  0  0  0  0  0  0  0  0
    0.7189   -0.3450    6.5690 H   0  0  0  0  0  0  0  0  0  0  0  0
    0.5118    1.4086    6.5994 H   0  0  0  0  0  0  0  0  0  0  0  0
   -0.3715   -0.7975    4.0913 C   0  0  0  0  0  0  0  0  0  0  0  0
   -1.4064   -0.9477    4.4040 H   0  0  0  0  0  0  0  0  0  0  0  0
    0.2149   -1.6464    4.4471 H   0  0  0  0  0  0  0  0  0  0  0  0
   -0.3427   -0.7979    3.0010 H   0  0  0  0  0  0  0  0  0  0  0  0
   -0.6635    1.6766    4.1354 C   0  0  0  0  0  0  0  0  0  0  0  0
   -0.6420    1.7126    3.0454 H   0  0  0  0  0  0  0  0  0  0  0  0
   -1.7033    1.5728    4.4499 H   0  0  0  0  0  0  0  0  0  0  0  0
   -0.2879    2.6273    4.5175 H   0  0  0  0  0  0  0  0  0  0  0  0
  1  3  1  0  0  0  0
  2  1  1  0  0  0  0
  3  4  1  0  0  0  0
  3  5  2  0  0  0  0
  5  6  1  0  0  0  0
  7  8  1  0  0  0  0
  7  5  1  0  0  0  0
  9  7  2  0  0  0  0
 10  9  1  0  0  0  0
 11  9  1  0  0  0  0
 11  1  2  0  0  0  0
 12 11  1  0  0  0  0
 13 18  1  0  0  0  0
 14 16  1  0  0  0  0
 14 15  1  0  0  0  0
 14 13  1  0  0  0  0
 17 14  1  0  0  0  0
 18 19  1  0  0  0  0
 18 20  1  0  0  0  0
 18 21  1  0  0  0  0
 22 23  1  0  0  0  0
 22 24  1  0  0  0  0
 22 13  1  0  0  0  0
 25 22  1  0  0  0  0
 26 28  1  0  0  0  0
 26 29  1  0  0  0  0
 26 13  1  0  0  0  0
 27 26  1  0  0  0  0
M  END
>  <SMILES>
c1ccccc1.C(C)(C)(C)C

>  <MoleculeName>
BenzeneNeopentane095

>  <Distance Scale>
0.95

>  <Energy Value>
-2.68

$$$$
/home/S66X8/2795_13PeptideMeOH090.xyz
 OpenBabel06262409173D

 18 16  0  0  0  0  0  0  0  0999 V2000
   -0.8493   -0.3395    2.4917 C   0  0  0  0  0  0  0  0  0  0  0  0
    0.1843   -0.0110    2.4162 H   0  0  0  0  0  0  0  0  0  0  0  0
   -0.8825   -1.3421    2.9127 H   0  0  0  0  0  0  0  0  0  0  0  0
   -1.3908    0.3169    3.1684 H   0  0  0  0  0  0  0  0  0  0  0  0
   -1.5640   -0.3533    1.1595 C   0  0  0  0  0  0  0  0  0  0  0  0
   -2.7495   -0.6515    1.0568 O   0  0  0  0  0  0  0  0  0  0  0  0
   -0.8017   -0.0274    0.0883 N   0  0  0  0  0  0  0  0  0  0  0  0
    0.1612    0.2404    0.2187 H   0  0  0  0  0  0  0  0  0  0  0  0
   -1.3853   -0.0024   -1.2341 C   0  0  0  0  0  0  0  0  0  0  0  0
   -1.8916   -0.9428   -1.4401 H   0  0  0  0  0  0  0  0  0  0  0  0
   -2.1200    0.7962   -1.3309 H   0  0  0  0  0  0  0  0  0  0  0  0
   -0.5946    0.1496   -1.9631 H   0  0  0  0  0  0  0  0  0  0  0  0
    1.9619    0.2510    0.4329 O   0  0  0  0  0  0  0  0  0  0  0  0
    2.6827    0.8783    0.5233 H   0  0  0  0  0  0  0  0  0  0  0  0
    2.4810   -1.0544    0.6668 C   0  0  0  0  0  0  0  0  0  0  0  0
    1.6484   -1.7432    0.5612 H   0  0  0  0  0  0  0  0  0  0  0  0
    3.2471   -1.3234   -0.0601 H   0  0  0  0  0  0  0  0  0  0  0  0
    2.8891   -1.1558    1.6724 H   0  0  0  0  0  0  0  0  0  0  0  0
  1  3  1  0  0  0  0
  1  4  1  0  0  0  0
  2  1  1  0  0  0  0
  5  1  1  0  0  0  0
  6  5  2  0  0  0  0
  7  8  1  0  0  0  0
  7  5  1  0  0  0  0
  9  7  1  0  0  0  0
 10  9  1  0  0  0  0
 11  9  1  0  0  0  0
 12  9  1  0  0  0  0
 13 14  1  0  0  0  0
 13 15  1  0  0  0  0
 15 18  1  0  0  0  0
 16 15  1  0  0  0  0
 17 15  1  0  0  0  0
M  END
>  <SMILES>
CC(=O)NC.OC

>  <MoleculeName>
PeptideMeOH090

>  <Distance Scale>
0.9

>  <Energy Value>
-5.67

$$$$
